---------------------------------------
Begin Slurm Prolog: Oct-10-2024 09:20:30
Job ID:    1627285
User ID:   psummers8
Account:   gts-arobel3
Job name:  S200
Partition: cpu-small
QOS:       inferno
---------------------------------------
Idenitfied machine as Linux
Already build, clean up run folder, then make simlinks and run
(PID.TID 0000.0001) 
(PID.TID 0000.0001) // ======================================================
(PID.TID 0000.0001) //                      MITgcm UV
(PID.TID 0000.0001) //                      =========
(PID.TID 0000.0001) // ======================================================
(PID.TID 0000.0001) // execution environment starting up...
(PID.TID 0000.0001) 
(PID.TID 0000.0001) // MITgcmUV version:  checkpoint68z
(PID.TID 0000.0001) // Build user:        psummers8
(PID.TID 0000.0001) // Build host:        atl1-1-02-005-8-2.pace.gatech.edu
(PID.TID 0000.0001) // Build date:        Wed Oct  9 02:08:14 PM EDT 2024
(PID.TID 0000.0001) 
(PID.TID 0000.0001) // =======================================================
(PID.TID 0000.0001) // Execution Environment parameter file "eedata"
(PID.TID 0000.0001) // =======================================================
(PID.TID 0000.0001) ># "eedata" file
(PID.TID 0000.0001) ># Lines beginning "#" are comments
(PID.TID 0000.0001) ># nTx - No. threads per process in X
(PID.TID 0000.0001) ># nTy - No. threads per process in Y
(PID.TID 0000.0001) > &EEPARMS
(PID.TID 0000.0001) > nTx=1,
(PID.TID 0000.0001) > nTy=1,
(PID.TID 0000.0001) > /
(PID.TID 0000.0001) ># Note: Some systems use & as the namelist terminator (as shown here).
(PID.TID 0000.0001) >#       Other systems use a / character.
(PID.TID 0000.0001) 
(PID.TID 0000.0001) // =======================================================
(PID.TID 0000.0001) // Computational Grid Specification ( see files "SIZE.h" )
(PID.TID 0000.0001) //                                  ( and "eedata"       )
(PID.TID 0000.0001) // =======================================================
(PID.TID 0000.0001)      nPx =    1 ; /* No. processes in X */
(PID.TID 0000.0001)      nPy =    1 ; /* No. processes in Y */
(PID.TID 0000.0001)      nSx =    1 ; /* No. tiles in X per process */
(PID.TID 0000.0001)      nSy =    1 ; /* No. tiles in Y per process */
(PID.TID 0000.0001)      sNx =  125 ; /* Tile size in X */
(PID.TID 0000.0001)      sNy =   27 ; /* Tile size in Y */
(PID.TID 0000.0001)      OLx =    3 ; /* Tile overlap distance in X */
(PID.TID 0000.0001)      OLy =    3 ; /* Tile overlap distance in Y */
(PID.TID 0000.0001)      nTx =    1 ; /* No. threads in X per process */
(PID.TID 0000.0001)      nTy =    1 ; /* No. threads in Y per process */
(PID.TID 0000.0001)       Nr =  100 ; /* No. levels in the vertical   */
(PID.TID 0000.0001)       Nx =  125 ; /* Total domain size in X ( = nPx*nSx*sNx ) */
(PID.TID 0000.0001)       Ny =   27 ; /* Total domain size in Y ( = nPy*nSy*sNy ) */
(PID.TID 0000.0001)   nTiles =    1 ; /* Total no. tiles per process ( = nSx*nSy ) */
(PID.TID 0000.0001)   nProcs =    1 ; /* Total no. processes ( = nPx*nPy ) */
(PID.TID 0000.0001) nThreads =    1 ; /* Total no. threads per process ( = nTx*nTy ) */
(PID.TID 0000.0001) usingMPI =    F ; /* Flag used to control whether MPI is in use */
(PID.TID 0000.0001)                   /*  note: To execute a program with MPI calls */
(PID.TID 0000.0001)                   /*  it must be launched appropriately e.g     */
(PID.TID 0000.0001)                   /*  "mpirun -np 64 ......"                    */
(PID.TID 0000.0001) useCoupler=   F ; /* Flag used to control communications with   */
(PID.TID 0000.0001)                   /*  other model components, through a coupler */
(PID.TID 0000.0001) useNest2W_parent =    F ;/* Control 2-W Nesting comm */
(PID.TID 0000.0001) useNest2W_child  =    F ;/* Control 2-W Nesting comm */
(PID.TID 0000.0001) debugMode =    F ; /* print debug msg. (sequence of S/R calls)  */
(PID.TID 0000.0001) printMapIncludesZeros=    F ; /* print zeros in Std.Output maps */
(PID.TID 0000.0001) maxLengthPrt1D=   65 /* maxLength of 1D array printed to StdOut */
(PID.TID 0000.0001) 
(PID.TID 0000.0001) // ======================================================
(PID.TID 0000.0001) // Mapping of tiles to threads
(PID.TID 0000.0001) // ======================================================
(PID.TID 0000.0001) // -o- Thread   1, tiles (   1:   1,   1:   1)
(PID.TID 0000.0001) 
(PID.TID 0000.0001) // ======================================================
(PID.TID 0000.0001) // Tile <-> Tile connectvity table
(PID.TID 0000.0001) // ======================================================
(PID.TID 0000.0001) // Tile number: 000001 (process no. = 000000)
(PID.TID 0000.0001) //        WEST: Tile = 000001, Process = 000000, Comm = put
(PID.TID 0000.0001) //                bi = 000001, bj = 000001
(PID.TID 0000.0001) //        EAST: Tile = 000001, Process = 000000, Comm = put
(PID.TID 0000.0001) //                bi = 000001, bj = 000001
(PID.TID 0000.0001) //       SOUTH: Tile = 000001, Process = 000000, Comm = put
(PID.TID 0000.0001) //                bi = 000001, bj = 000001
(PID.TID 0000.0001) //       NORTH: Tile = 000001, Process = 000000, Comm = put
(PID.TID 0000.0001) //                bi = 000001, bj = 000001
(PID.TID 0000.0001) 
(PID.TID 0000.0001)  INI_PARMS: opening model parameter file "data"
(PID.TID 0000.0001)  OPEN_COPY_DATA_FILE: opening file data
(PID.TID 0000.0001) // =======================================================
(PID.TID 0000.0001) // Parameter file "data"
(PID.TID 0000.0001) // =======================================================
(PID.TID 0000.0001) ># ====================
(PID.TID 0000.0001) ># | Model parameters |
(PID.TID 0000.0001) ># ====================
(PID.TID 0000.0001) >
(PID.TID 0000.0001) ># Continuous equation parameters
(PID.TID 0000.0001) > &PARM01
(PID.TID 0000.0001) > vectorInvariantMomentum=.TRUE.,
(PID.TID 0000.0001) > viscA4=0.00000000e+00,
(PID.TID 0000.0001) > viscAz=1.00000000e-03,
(PID.TID 0000.0001) > viscAh=2.50000000e-01,
(PID.TID 0000.0001) > tempAdvScheme=33,
(PID.TID 0000.0001) > saltAdvScheme=33,
(PID.TID 0000.0001) > staggerTimeStep=.TRUE.,
(PID.TID 0000.0001) > diffK4T=0.00000000e+00,
(PID.TID 0000.0001) > diffKhT=2.50000000e-01,
(PID.TID 0000.0001) > diffKzT=2.00000000e-05,
(PID.TID 0000.0001) > diffK4S=0.00000000e+00,
(PID.TID 0000.0001) > diffKhS=2.50000000e-01,
(PID.TID 0000.0001) > diffKzS=2.00000000e-05,
(PID.TID 0000.0001) > eosType='JMD95Z',
(PID.TID 0000.0001) > Tref=0.00000000e+00, 0.00000000e+00, 0.00000000e+00, 0.00000000e+00, 0.00000000e+00, 0.00000000e+00, 0.00000000e+00, 0.00000000e+00, 0.00000000e+00, 0.00000000e+00,
(PID.TID 0000.0001) >      0.00000000e+00, 0.00000000e+00, 0.00000000e+00, 0.00000000e+00, 0.00000000e+00, 0.00000000e+00, 0.00000000e+00, 0.00000000e+00, 0.00000000e+00, 0.00000000e+00,
(PID.TID 0000.0001) >      0.00000000e+00, 0.00000000e+00, 0.00000000e+00, 0.00000000e+00, 0.00000000e+00, 0.00000000e+00, 0.00000000e+00, 0.00000000e+00, 0.00000000e+00, 0.00000000e+00,
(PID.TID 0000.0001) >      0.00000000e+00, 0.00000000e+00, 0.00000000e+00, 0.00000000e+00, 0.00000000e+00, 0.00000000e+00, 0.00000000e+00, 0.00000000e+00, 0.00000000e+00, 0.00000000e+00,
(PID.TID 0000.0001) >      0.00000000e+00, 0.00000000e+00, 0.00000000e+00, 0.00000000e+00, 0.00000000e+00, 0.00000000e+00, 0.00000000e+00, 0.00000000e+00, 0.00000000e+00, 0.00000000e+00,
(PID.TID 0000.0001) >      0.00000000e+00, 0.00000000e+00, 0.00000000e+00, 0.00000000e+00, 0.00000000e+00, 0.00000000e+00, 0.00000000e+00, 0.00000000e+00, 0.00000000e+00, 0.00000000e+00,
(PID.TID 0000.0001) >      0.00000000e+00, 0.00000000e+00, 0.00000000e+00, 0.00000000e+00, 0.00000000e+00, 0.00000000e+00, 0.00000000e+00, 0.00000000e+00, 0.00000000e+00, 0.00000000e+00,
(PID.TID 0000.0001) >      0.00000000e+00, 0.00000000e+00, 0.00000000e+00, 0.00000000e+00, 0.00000000e+00, 0.00000000e+00, 0.00000000e+00, 0.00000000e+00, 0.00000000e+00, 0.00000000e+00,
(PID.TID 0000.0001) >      0.00000000e+00, 0.00000000e+00, 0.00000000e+00, 0.00000000e+00, 0.00000000e+00, 0.00000000e+00, 0.00000000e+00, 0.00000000e+00, 0.00000000e+00, 0.00000000e+00,
(PID.TID 0000.0001) >      0.00000000e+00, 0.00000000e+00, 0.00000000e+00, 0.00000000e+00, 0.00000000e+00, 0.00000000e+00, 0.00000000e+00, 0.00000000e+00, 0.00000000e+00, 0.00000000e+00,
(PID.TID 0000.0001) > Sref=3.40000000e+01, 3.40000000e+01, 3.40000000e+01, 3.40000000e+01, 3.40000000e+01, 3.40000000e+01, 3.40000000e+01, 3.40000000e+01, 3.40000000e+01, 3.40000000e+01,
(PID.TID 0000.0001) >      3.40000000e+01, 3.40000000e+01, 3.40000000e+01, 3.40000000e+01, 3.40000000e+01, 3.40000000e+01, 3.40000000e+01, 3.40000000e+01, 3.40000000e+01, 3.40000000e+01,
(PID.TID 0000.0001) >      3.40000000e+01, 3.40000000e+01, 3.40000000e+01, 3.40000000e+01, 3.40000000e+01, 3.40000000e+01, 3.40000000e+01, 3.40000000e+01, 3.40000000e+01, 3.40000000e+01,
(PID.TID 0000.0001) >      3.40000000e+01, 3.40000000e+01, 3.40000000e+01, 3.40000000e+01, 3.40000000e+01, 3.40000000e+01, 3.40000000e+01, 3.40000000e+01, 3.40000000e+01, 3.40000000e+01,
(PID.TID 0000.0001) >      3.40000000e+01, 3.40000000e+01, 3.40000000e+01, 3.40000000e+01, 3.40000000e+01, 3.40000000e+01, 3.40000000e+01, 3.40000000e+01, 3.40000000e+01, 3.40000000e+01,
(PID.TID 0000.0001) >      3.40000000e+01, 3.40000000e+01, 3.40000000e+01, 3.40000000e+01, 3.40000000e+01, 3.40000000e+01, 3.40000000e+01, 3.40000000e+01, 3.40000000e+01, 3.40000000e+01,
(PID.TID 0000.0001) >      3.40000000e+01, 3.40000000e+01, 3.40000000e+01, 3.40000000e+01, 3.40000000e+01, 3.40000000e+01, 3.40000000e+01, 3.40000000e+01, 3.40000000e+01, 3.40000000e+01,
(PID.TID 0000.0001) >      3.40000000e+01, 3.40000000e+01, 3.40000000e+01, 3.40000000e+01, 3.40000000e+01, 3.40000000e+01, 3.40000000e+01, 3.40000000e+01, 3.40000000e+01, 3.40000000e+01,
(PID.TID 0000.0001) >      3.40000000e+01, 3.40000000e+01, 3.40000000e+01, 3.40000000e+01, 3.40000000e+01, 3.40000000e+01, 3.40000000e+01, 3.40000000e+01, 3.40000000e+01, 3.40000000e+01,
(PID.TID 0000.0001) >      3.40000000e+01, 3.40000000e+01, 3.40000000e+01, 3.40000000e+01, 3.40000000e+01, 3.40000000e+01, 3.40000000e+01, 3.40000000e+01, 3.40000000e+01, 3.40000000e+01,
(PID.TID 0000.0001) > no_slip_sides=.TRUE.,
(PID.TID 0000.0001) > no_slip_bottom=.TRUE.,
(PID.TID 0000.0001) > rigidLid=.TRUE.,
(PID.TID 0000.0001) > implicitFreeSurface=.FALSE.,
(PID.TID 0000.0001) > implicitViscosity=.TRUE.,
(PID.TID 0000.0001) > implicitDiffusion=.TRUE.,
(PID.TID 0000.0001) > f0=1.36000000e-04,
(PID.TID 0000.0001) > beta=0.00000000e+00,
(PID.TID 0000.0001) > gravity=9.81000000e+00,
(PID.TID 0000.0001) > selectAddFluid=0,
(PID.TID 0000.0001) > hFacMin=5.00000000e-02,
(PID.TID 0000.0001) > nonHydrostatic=.TRUE.,
(PID.TID 0000.0001) > readBinaryPrec=64,
(PID.TID 0000.0001) > plotLevel=0,
(PID.TID 0000.0001) > /
(PID.TID 0000.0001) >
(PID.TID 0000.0001) ># Elliptic solver parameters
(PID.TID 0000.0001) > &PARM02
(PID.TID 0000.0001) > cg2dMaxIters=300,
(PID.TID 0000.0001) > cg2dTargetResidual=1.00000000e-13,
(PID.TID 0000.0001) > cg3dMaxIters=20,
(PID.TID 0000.0001) > cg3dTargetResidual=1.00000000e-08,
(PID.TID 0000.0001) > /
(PID.TID 0000.0001) >
(PID.TID 0000.0001) ># Time stepping parameters
(PID.TID 0000.0001) > &PARM03
(PID.TID 0000.0001) > nIter0=0,
(PID.TID 0000.0001) > abEps=1.00000000e-01,
(PID.TID 0000.0001) > chkptFreq=0.00000000e+00,
(PID.TID 0000.0001) > pChkptFreq=0.00000000e+00,
(PID.TID 0000.0001) > taveFreq=0.00000000e+00,
(PID.TID 0000.0001) > dumpFreq=8.64000000e+04,
(PID.TID 0000.0001) > monitorFreq=8.64000000e+04,
(PID.TID 0000.0001) > monitorSelect=1,
(PID.TID 0000.0001) > periodicExternalForcing=.FALSE.,
(PID.TID 0000.0001) > ExternForcingPeriod=1.00000000e+02,
(PID.TID 0000.0001) > ExternForcingCycle=1.00000000e+03,
(PID.TID 0000.0001) > endTime=4320000,
(PID.TID 0000.0001) > deltaT=2.00000000e+01,
(PID.TID 0000.0001) > /
(PID.TID 0000.0001) >
(PID.TID 0000.0001) ># Gridding parameters
(PID.TID 0000.0001) > &PARM04
(PID.TID 0000.0001) > usingCartesianGrid=.TRUE.,
(PID.TID 0000.0001) > usingSphericalPolarGrid=.FALSE.,
(PID.TID 0000.0001) > delX=2.00000000e+02, 2.00000000e+02, 2.00000000e+02, 2.00000000e+02, 2.00000000e+02, 2.00000000e+02, 2.00000000e+02, 2.00000000e+02, 2.00000000e+02, 2.00000000e+02,
(PID.TID 0000.0001) >      2.00000000e+02, 2.00000000e+02, 2.00000000e+02, 2.00000000e+02, 2.00000000e+02, 2.00000000e+02, 2.00000000e+02, 2.00000000e+02, 2.00000000e+02, 2.00000000e+02,
(PID.TID 0000.0001) >      2.00000000e+02, 2.00000000e+02, 2.00000000e+02, 2.00000000e+02, 2.00000000e+02, 2.00000000e+02, 2.00000000e+02, 2.00000000e+02, 2.00000000e+02, 2.00000000e+02,
(PID.TID 0000.0001) >      2.00000000e+02, 2.00000000e+02, 2.00000000e+02, 2.00000000e+02, 2.00000000e+02, 2.00000000e+02, 2.00000000e+02, 2.00000000e+02, 2.00000000e+02, 2.00000000e+02,
(PID.TID 0000.0001) >      2.00000000e+02, 2.00000000e+02, 2.00000000e+02, 2.00000000e+02, 2.00000000e+02, 2.00000000e+02, 2.00000000e+02, 2.00000000e+02, 2.00000000e+02, 2.00000000e+02,
(PID.TID 0000.0001) >      2.00000000e+02, 2.00000000e+02, 2.00000000e+02, 2.00000000e+02, 2.00000000e+02, 2.00000000e+02, 2.00000000e+02, 2.00000000e+02, 2.00000000e+02, 2.00000000e+02,
(PID.TID 0000.0001) >      2.00000000e+02, 2.00000000e+02, 2.00000000e+02, 2.00000000e+02, 2.00000000e+02, 2.00000000e+02, 2.00000000e+02, 2.00000000e+02, 2.00000000e+02, 2.00000000e+02,
(PID.TID 0000.0001) >      2.00000000e+02, 2.00000000e+02, 2.00000000e+02, 2.00000000e+02, 2.00000000e+02, 2.00000000e+02, 2.00000000e+02, 2.00000000e+02, 2.00000000e+02, 2.00000000e+02,
(PID.TID 0000.0001) >      2.00000000e+02, 2.00000000e+02, 2.00000000e+02, 2.00000000e+02, 2.00000000e+02, 2.00000000e+02, 2.00000000e+02, 2.00000000e+02, 2.00000000e+02, 2.00000000e+02,
(PID.TID 0000.0001) >      2.00000000e+02, 2.00000000e+02, 2.00000000e+02, 2.00000000e+02, 2.00000000e+02, 2.00000000e+02, 2.00000000e+02, 2.00000000e+02, 2.00000000e+02, 2.00000000e+02,
(PID.TID 0000.0001) >      2.00000000e+02, 2.00000000e+02, 2.00000000e+02, 2.00000000e+02, 2.00000000e+02, 2.00000000e+02, 2.00000000e+02, 2.00000000e+02, 2.00000000e+02, 2.00000000e+02,
(PID.TID 0000.0001) >      2.00000000e+02, 2.00000000e+02, 2.00000000e+02, 2.00000000e+02, 2.00000000e+02, 2.00000000e+02, 2.00000000e+02, 2.00000000e+02, 2.00000000e+02, 2.00000000e+02,
(PID.TID 0000.0001) >      2.00000000e+02, 2.00000000e+02, 2.00000000e+02, 2.00000000e+02, 2.00000000e+02,
(PID.TID 0000.0001) > delY=2.00000000e+02, 2.00000000e+02, 2.00000000e+02, 2.00000000e+02, 2.00000000e+02, 2.00000000e+02, 2.00000000e+02, 2.00000000e+02, 2.00000000e+02, 2.00000000e+02,
(PID.TID 0000.0001) >      2.00000000e+02, 2.00000000e+02, 2.00000000e+02, 2.00000000e+02, 2.00000000e+02, 2.00000000e+02, 2.00000000e+02, 2.00000000e+02, 2.00000000e+02, 2.00000000e+02,
(PID.TID 0000.0001) >      2.00000000e+02, 2.00000000e+02, 2.00000000e+02, 2.00000000e+02, 2.00000000e+02, 2.00000000e+02, 2.00000000e+02,
(PID.TID 0000.0001) > delZ=3.63800563e-01, 3.63836916e-01, 3.63881315e-01, 3.63935543e-01, 3.64001775e-01, 3.64082667e-01, 3.64181463e-01, 3.64302125e-01, 3.64449489e-01, 3.64629463e-01,
(PID.TID 0000.0001) >      3.64849256e-01, 3.65117673e-01, 3.65445457e-01, 3.65845725e-01, 3.66334481e-01, 3.66931250e-01, 3.67659850e-01, 3.68549324e-01, 3.69635073e-01, 3.70960232e-01,
(PID.TID 0000.0001) >      3.72577326e-01, 3.74550278e-01, 3.76956814e-01, 3.79891351e-01, 3.83468441e-01, 3.87826863e-01, 3.93134432e-01, 3.99593630e-01, 4.07448095e-01, 4.16989998e-01,
(PID.TID 0000.0001) >      4.28568273e-01, 4.42597525e-01, 4.59567301e-01, 4.80051165e-01, 5.04714653e-01, 5.34320752e-01, 5.69730983e-01, 6.11899498e-01, 6.61856963e-01, 7.20680506e-01,
(PID.TID 0000.0001) >      7.89445916e-01, 8.69159049e-01, 9.60665351e-01, 1.06454006e+00, 1.18096693e+00, 1.30961981e+00, 1.44956729e+00, 1.59922401e+00, 1.75636994e+00, 1.91824993e+00,
(PID.TID 0000.0001) >      2.08175007e+00, 2.24363006e+00, 2.40077599e+00, 2.55043271e+00, 2.69038019e+00, 2.81903307e+00, 2.93545994e+00, 3.03933465e+00, 3.13084095e+00, 3.21055408e+00,
(PID.TID 0000.0001) >      3.27931949e+00, 3.33814304e+00, 3.38810050e+00, 3.43026902e+00, 3.46567925e+00, 3.49528535e+00, 3.51994884e+00, 3.54043270e+00, 3.55740248e+00, 3.57143173e+00,
(PID.TID 0000.0001) >      3.58301000e+00, 3.59255191e+00, 3.60040637e+00, 3.60686557e+00, 3.61217314e+00, 3.61653156e+00, 3.62010865e+00, 3.62304319e+00, 3.62544972e+00, 3.62742267e+00,
(PID.TID 0000.0001) >      3.62903977e+00, 3.63036493e+00, 3.63145068e+00, 3.63234015e+00, 3.63306875e+00, 3.63366552e+00, 3.63415427e+00, 3.63455454e+00, 3.63488233e+00, 3.63515074e+00,
(PID.TID 0000.0001) >      3.63537054e+00, 3.63555051e+00, 3.63569788e+00, 3.63581854e+00, 3.63591733e+00, 3.63599823e+00, 3.63606446e+00, 3.63611869e+00, 3.63616308e+00, 3.63619944e+00,
(PID.TID 0000.0001) > /
(PID.TID 0000.0001) >
(PID.TID 0000.0001) ># Input datasets
(PID.TID 0000.0001) > &PARM05
(PID.TID 0000.0001) > bathyFile='topog.slope',
(PID.TID 0000.0001) > hydrogThetaFile='T.init',
(PID.TID 0000.0001) > hydrogSaltFile='S.init',
(PID.TID 0000.0001) > /
(PID.TID 0000.0001) >
(PID.TID 0000.0001) 
(PID.TID 0000.0001)  INI_PARMS ; starts to read PARM01
(PID.TID 0000.0001)  INI_PARMS ; read PARM01 : OK
(PID.TID 0000.0001)  INI_PARMS ; starts to read PARM02
(PID.TID 0000.0001)  INI_PARMS ; read PARM02 : OK
(PID.TID 0000.0001)  INI_PARMS ; starts to read PARM03
(PID.TID 0000.0001)  INI_PARMS ; read PARM03 : OK
(PID.TID 0000.0001)  INI_PARMS ; starts to read PARM04
(PID.TID 0000.0001)  INI_PARMS ; read PARM04 : OK
(PID.TID 0000.0001)  INI_PARMS ; starts to read PARM05
(PID.TID 0000.0001)  INI_PARMS ; read PARM05 : OK
(PID.TID 0000.0001)  INI_PARMS: finished reading file "data"
(PID.TID 0000.0001)  PACKAGES_BOOT: opening data.pkg
(PID.TID 0000.0001)  OPEN_COPY_DATA_FILE: opening file data.pkg
(PID.TID 0000.0001) // =======================================================
(PID.TID 0000.0001) // Parameter file "data.pkg"
(PID.TID 0000.0001) // =======================================================
(PID.TID 0000.0001) ># Packages
(PID.TID 0000.0001) > &PACKAGES
(PID.TID 0000.0001) > useOBCS=.TRUE.,
(PID.TID 0000.0001) > useSHELFICE=.TRUE.,
(PID.TID 0000.0001) > useDiagnostics=.TRUE.,
(PID.TID 0000.0001) > /
(PID.TID 0000.0001) 
(PID.TID 0000.0001)  PACKAGES_BOOT: finished reading data.pkg
(PID.TID 0000.0001)  PACKAGES_BOOT: On/Off package Summary
 --------  pkgs with a standard "usePKG" On/Off switch in "data.pkg":  --------
 pkg/obcs                 compiled   and   used ( useOBCS                  = T )
 pkg/rbcs                 compiled but not used ( useRBCS                  = F )
 pkg/shelfice             compiled   and   used ( useShelfIce              = T )
 pkg/diagnostics          compiled   and   used ( useDiagnostics           = T )
 -------- pkgs without standard "usePKG" On/Off switch in "data.pkg":  --------
 pkg/generic_advdiff      compiled   and   used ( useGAD                   = T )
 pkg/mom_common           compiled   and   used ( momStepping              = T )
 pkg/mom_vecinv           compiled   and   used ( +vectorInvariantMomentum = T )
 pkg/mom_fluxform         compiled but not used ( & not vectorInvariantMom = F )
 pkg/monitor              compiled   and   used ( monitorFreq > 0.         = T )
 pkg/debug                compiled but not used ( debugMode                = F )
 pkg/rw                   compiled   and   used
 pkg/mdsio                compiled   and   used
(PID.TID 0000.0001)  PACKAGES_BOOT: End of package Summary
(PID.TID 0000.0001) 
(PID.TID 0000.0001)  OBCS_READPARMS: opening data.obcs
(PID.TID 0000.0001)  OPEN_COPY_DATA_FILE: opening file data.obcs
(PID.TID 0000.0001) // =======================================================
(PID.TID 0000.0001) // Parameter file "data.obcs"
(PID.TID 0000.0001) // =======================================================
(PID.TID 0000.0001) ># Open-boundaries
(PID.TID 0000.0001) > &OBCS_PARM01
(PID.TID 0000.0001) >
(PID.TID 0000.0001) > OB_singleIeast=-1,
(PID.TID 0000.0001) ># OB_singleIwest=1,
(PID.TID 0000.0001) ># OB_Ieast = 10*-1,
(PID.TID 0000.0001) >
(PID.TID 0000.0001) > useOBCSsponge=.TRUE.,
(PID.TID 0000.0001) ># useOrlanskiEast=.TRUE.,
(PID.TID 0000.0001) ># useOBCSbalance=.TRUE.,
(PID.TID 0000.0001) > useOBCSprescribe=.TRUE.,
(PID.TID 0000.0001) > OBEsFile='S.bound',
(PID.TID 0000.0001) > OBEtFile='T.bound',
(PID.TID 0000.0001) > OBEuFile='U.bound',
(PID.TID 0000.0001) ># OBWsFile='S.sgd',
(PID.TID 0000.0001) ># OBWtFile='T.sgd',
(PID.TID 0000.0001) ># OBWuFile='U.sgd',
(PID.TID 0000.0001) >
(PID.TID 0000.0001) > OBCS_balanceFacE=1.,
(PID.TID 0000.0001) > OBCS_balanceFacW=0.,
(PID.TID 0000.0001) > OBCS_balanceFacN=0.,
(PID.TID 0000.0001) > OBCS_balanceFacS=0.,
(PID.TID 0000.0001) > /
(PID.TID 0000.0001) >
(PID.TID 0000.0001) ># Orlanski parameters
(PID.TID 0000.0001) > &OBCS_PARM02
(PID.TID 0000.0001) > /
(PID.TID 0000.0001) >
(PID.TID 0000.0001) > &OBCS_PARM03
(PID.TID 0000.0001) > spongeThickness=5,
(PID.TID 0000.0001) > Urelaxobcsinner=86400.,
(PID.TID 0000.0001) > Urelaxobcsbound=3600.,
(PID.TID 0000.0001) > Vrelaxobcsinner=86400.,
(PID.TID 0000.0001) > Vrelaxobcsbound=3600.,
(PID.TID 0000.0001) > /
(PID.TID 0000.0001) 
(PID.TID 0000.0001)  OBCS_READPARMS: finished reading data.obcs
(PID.TID 0000.0001)  OB_indexUnset = /* unset OB index value (i.e. no OB) */
(PID.TID 0000.0001)                       0
(PID.TID 0000.0001)     ;
(PID.TID 0000.0001)  Northern OB global indices : OB_Jnorth =
(PID.TID 0000.0001)   125 @        0                            /* I =  1:125 */
(PID.TID 0000.0001)  Southern OB global indices : OB_Jsouth =
(PID.TID 0000.0001)   125 @        0                            /* I =  1:125 */
(PID.TID 0000.0001)  Eastern  OB global indices : OB_Ieast =
(PID.TID 0000.0001)    27 @      125                            /* J =  1: 27 */
(PID.TID 0000.0001)  Western  OB global indices : OB_Iwest =
(PID.TID 0000.0001)    27 @        0                            /* J =  1: 27 */
(PID.TID 0000.0001) 
(PID.TID 0000.0001)  SHELFICE_READPARMS: opening data.shelfice
(PID.TID 0000.0001)  OPEN_COPY_DATA_FILE: opening file data.shelfice
(PID.TID 0000.0001) // =======================================================
(PID.TID 0000.0001) // Parameter file "data.shelfice"
(PID.TID 0000.0001) // =======================================================
(PID.TID 0000.0001) ># =================================t=
(PID.TID 0000.0001) ># | Parameters for SHELFICE package |
(PID.TID 0000.0001) ># ===================================
(PID.TID 0000.0001) > &SHELFICE_PARM01
(PID.TID 0000.0001) > SHELFICEboundaryLayer = .TRUE.,
(PID.TID 0000.0001) > SHELFICEtopoFile='icetopo.exp1',
(PID.TID 0000.0001) > SHELFICEloadAnomalyFile = 'phi0.exp1',
(PID.TID 0000.0001) > useISOMIPTD = .FALSE.,
(PID.TID 0000.0001) >#SHELFICEheatTransCoeff = 1.E-4
(PID.TID 0000.0001) >#SHELFICEsaltTransCoeff = 5.05E-7
(PID.TID 0000.0001) > SHELFICEuseGammaFrict = .TRUE.,
(PID.TID 0000.0001) > no_slip_shelfice = .TRUE.,
(PID.TID 0000.0001) > SHELFICEwriteState = .TRUE.,
(PID.TID 0000.0001) > /
(PID.TID 0000.0001) 
(PID.TID 0000.0001)  SHELFICE_READPARMS: finished reading data.shelfice
(PID.TID 0000.0001)  DIAGNOSTICS_READPARMS: opening data.diagnostics
(PID.TID 0000.0001)  OPEN_COPY_DATA_FILE: opening file data.diagnostics
(PID.TID 0000.0001) // =======================================================
(PID.TID 0000.0001) // Parameter file "data.diagnostics"
(PID.TID 0000.0001) // =======================================================
(PID.TID 0000.0001) ># ==========================
(PID.TID 0000.0001) ># | DIAGNOSTICS parameters |
(PID.TID 0000.0001) ># ==========================
(PID.TID 0000.0001) >
(PID.TID 0000.0001) ># Diagnostics package choices
(PID.TID 0000.0001) > &DIAGNOSTICS_LIST
(PID.TID 0000.0001) > diag_mnc=.FALSE.,
(PID.TID 0000.0001) > fields(1:5,1)='THETA','SALT','UVEL','WVEL','VVEL',
(PID.TID 0000.0001) > fileName(1)='dynDiag',
(PID.TID 0000.0001) > frequency(1)=21600,
(PID.TID 0000.0001) > timePhase(1)=0.00000000e+00,
(PID.TID 0000.0001) > fields(1:4,2)='UVELSLT ','UVELTH  ','WVELSLT ','WVELTH  ',
(PID.TID 0000.0001) > fileName(2)='fluxDiag',
(PID.TID 0000.0001) > frequency(2)=21600,
(PID.TID 0000.0001) > timePhase(2)=0.00000000e+00,
(PID.TID 0000.0001) > fields(1:4,3)='SHIfwFlx','SHIhtFlx','SHIForcT','SHIForcS',
(PID.TID 0000.0001) > fileName(3)='SHIflux',
(PID.TID 0000.0001) > frequency(3)=21600,
(PID.TID 0000.0001) > timePhase(3)=0.00000000e+00,
(PID.TID 0000.0001) > fields(1:3,4)='SHIgammT','SHIgammS','SHIuStar',
(PID.TID 0000.0001) > fileName(4)='SHIgamma',
(PID.TID 0000.0001) > frequency(4)=21600,
(PID.TID 0000.0001) > timePhase(4)=0.00000000e+00,
(PID.TID 0000.0001) > fields(1:5,5)='UVEL','VVEL','WVEL','THETA','SALT',
(PID.TID 0000.0001) > fileName(5)='dynDiag_inst',
(PID.TID 0000.0001) > frequency(5)=-21600,
(PID.TID 0000.0001) > timePhase(5)=0.00000000e+00,
(PID.TID 0000.0001) > /
(PID.TID 0000.0001) >
(PID.TID 0000.0001) ># Statistics package choices
(PID.TID 0000.0001) > &DIAG_STATIS_PARMS
(PID.TID 0000.0001) > /
(PID.TID 0000.0001) >
(PID.TID 0000.0001) 
(PID.TID 0000.0001) S/R DIAGNOSTICS_READPARMS, read namelist "diagnostics_list": start
(PID.TID 0000.0001) S/R DIAGNOSTICS_READPARMS, read namelist "diagnostics_list": OK
(PID.TID 0000.0001) S/R DIAGNOSTICS_READPARMS, read namelist "DIAG_STATIS_PARMS": start
(PID.TID 0000.0001) S/R DIAGNOSTICS_READPARMS, read namelist "DIAG_STATIS_PARMS": OK
(PID.TID 0000.0001) -----------------------------------------------------
(PID.TID 0000.0001)  DIAGNOSTICS_READPARMS: global parameter summary:
(PID.TID 0000.0001)  diag_dBugLevel = /* level of printed debug messages */
(PID.TID 0000.0001)                       2
(PID.TID 0000.0001)     ;
(PID.TID 0000.0001)  dumpAtLast = /* always write time-ave diags at the end */
(PID.TID 0000.0001)                   F
(PID.TID 0000.0001)     ;
(PID.TID 0000.0001)  diag_mnc =   /* write NetCDF output files */
(PID.TID 0000.0001)                   F
(PID.TID 0000.0001)     ;
(PID.TID 0000.0001)  useMissingValue = /* put MissingValue where mask = 0 */
(PID.TID 0000.0001)                   F
(PID.TID 0000.0001)     ;
(PID.TID 0000.0001)  diagCG_maxIters = /* max number of iters in diag_cg2d */
(PID.TID 0000.0001)                     300
(PID.TID 0000.0001)     ;
(PID.TID 0000.0001)  diagCG_resTarget = /* residual target for diag_cg2d */
(PID.TID 0000.0001)                 1.000000000000000E-13
(PID.TID 0000.0001)     ;
(PID.TID 0000.0001)  diagCG_pcOffDFac = /* preconditioner off-diagonal factor */
(PID.TID 0000.0001)                 9.611687812379854E-01
(PID.TID 0000.0001)     ;
(PID.TID 0000.0001) -----------------------------------------------------
(PID.TID 0000.0001)  DIAGNOSTICS_READPARMS: active diagnostics summary:
(PID.TID 0000.0001) -----------------------------------------------------
(PID.TID 0000.0001) Creating Output Stream: dynDiag
(PID.TID 0000.0001) Output Frequency:      21600.000000 ; Phase:           0.000000
(PID.TID 0000.0001)  Averaging Freq.:      21600.000000 , Phase:           0.000000 , Cycle:   1
(PID.TID 0000.0001)  missing value: -9.990000000000E+02
(PID.TID 0000.0001)  Levels:    will be set later
(PID.TID 0000.0001)  Fields:    THETA    SALT     UVEL     WVEL     VVEL
(PID.TID 0000.0001) Creating Output Stream: fluxDiag
(PID.TID 0000.0001) Output Frequency:      21600.000000 ; Phase:           0.000000
(PID.TID 0000.0001)  Averaging Freq.:      21600.000000 , Phase:           0.000000 , Cycle:   1
(PID.TID 0000.0001)  missing value: -9.990000000000E+02
(PID.TID 0000.0001)  Levels:    will be set later
(PID.TID 0000.0001)  Fields:    UVELSLT  UVELTH   WVELSLT  WVELTH
(PID.TID 0000.0001) Creating Output Stream: SHIflux
(PID.TID 0000.0001) Output Frequency:      21600.000000 ; Phase:           0.000000
(PID.TID 0000.0001)  Averaging Freq.:      21600.000000 , Phase:           0.000000 , Cycle:   1
(PID.TID 0000.0001)  missing value: -9.990000000000E+02
(PID.TID 0000.0001)  Levels:    will be set later
(PID.TID 0000.0001)  Fields:    SHIfwFlx SHIhtFlx SHIForcT SHIForcS
(PID.TID 0000.0001) Creating Output Stream: SHIgamma
(PID.TID 0000.0001) Output Frequency:      21600.000000 ; Phase:           0.000000
(PID.TID 0000.0001)  Averaging Freq.:      21600.000000 , Phase:           0.000000 , Cycle:   1
(PID.TID 0000.0001)  missing value: -9.990000000000E+02
(PID.TID 0000.0001)  Levels:    will be set later
(PID.TID 0000.0001)  Fields:    SHIgammT SHIgammS SHIuStar
(PID.TID 0000.0001) Creating Output Stream: dynDiag_inst
(PID.TID 0000.0001) Output Frequency:     -21600.000000 ; Phase:           0.000000
(PID.TID 0000.0001)  Averaging Freq.:          0.000000 , Phase:           0.000000 , Cycle:   1
(PID.TID 0000.0001)  missing value: -9.990000000000E+02
(PID.TID 0000.0001)  Levels:    will be set later
(PID.TID 0000.0001)  Fields:    UVEL     VVEL     WVEL     THETA    SALT
(PID.TID 0000.0001) -----------------------------------------------------
(PID.TID 0000.0001)  DIAGNOSTICS_READPARMS: statistics diags. summary:
(PID.TID 0000.0001) -----------------------------------------------------
(PID.TID 0000.0001) 
(PID.TID 0000.0001) SET_PARMS: done
(PID.TID 0000.0001) Enter INI_VERTICAL_GRID: setInterFDr=    T ; setCenterDr=    F
(PID.TID 0000.0001) %MON XC_max                       =   2.4900000000000E+04
(PID.TID 0000.0001) %MON XC_min                       =   1.0000000000000E+02
(PID.TID 0000.0001) %MON XC_mean                      =   1.2500000000000E+04
(PID.TID 0000.0001) %MON XC_sd                        =   7.2166474210675E+03
(PID.TID 0000.0001) %MON XG_max                       =   2.4800000000000E+04
(PID.TID 0000.0001) %MON XG_min                       =   0.0000000000000E+00
(PID.TID 0000.0001) %MON XG_mean                      =   1.2400000000000E+04
(PID.TID 0000.0001) %MON XG_sd                        =   7.2166474210675E+03
(PID.TID 0000.0001) %MON DXC_max                      =   2.0000000000000E+02
(PID.TID 0000.0001) %MON DXC_min                      =   2.0000000000000E+02
(PID.TID 0000.0001) %MON DXC_mean                     =   2.0000000000000E+02
(PID.TID 0000.0001) %MON DXC_sd                       =   0.0000000000000E+00
(PID.TID 0000.0001) %MON DXF_max                      =   2.0000000000000E+02
(PID.TID 0000.0001) %MON DXF_min                      =   2.0000000000000E+02
(PID.TID 0000.0001) %MON DXF_mean                     =   2.0000000000000E+02
(PID.TID 0000.0001) %MON DXF_sd                       =   0.0000000000000E+00
(PID.TID 0000.0001) %MON DXG_max                      =   2.0000000000000E+02
(PID.TID 0000.0001) %MON DXG_min                      =   2.0000000000000E+02
(PID.TID 0000.0001) %MON DXG_mean                     =   2.0000000000000E+02
(PID.TID 0000.0001) %MON DXG_sd                       =   0.0000000000000E+00
(PID.TID 0000.0001) %MON DXV_max                      =   2.0000000000000E+02
(PID.TID 0000.0001) %MON DXV_min                      =   2.0000000000000E+02
(PID.TID 0000.0001) %MON DXV_mean                     =   2.0000000000000E+02
(PID.TID 0000.0001) %MON DXV_sd                       =   0.0000000000000E+00
(PID.TID 0000.0001) %MON YC_max                       =   5.3000000000000E+03
(PID.TID 0000.0001) %MON YC_min                       =   1.0000000000000E+02
(PID.TID 0000.0001) %MON YC_mean                      =   2.7000000000000E+03
(PID.TID 0000.0001) %MON YC_sd                        =   1.5577761927397E+03
(PID.TID 0000.0001) %MON YG_max                       =   5.2000000000000E+03
(PID.TID 0000.0001) %MON YG_min                       =   0.0000000000000E+00
(PID.TID 0000.0001) %MON YG_mean                      =   2.6000000000000E+03
(PID.TID 0000.0001) %MON YG_sd                        =   1.5577761927397E+03
(PID.TID 0000.0001) %MON DYC_max                      =   2.0000000000000E+02
(PID.TID 0000.0001) %MON DYC_min                      =   2.0000000000000E+02
(PID.TID 0000.0001) %MON DYC_mean                     =   2.0000000000000E+02
(PID.TID 0000.0001) %MON DYC_sd                       =   0.0000000000000E+00
(PID.TID 0000.0001) %MON DYF_max                      =   2.0000000000000E+02
(PID.TID 0000.0001) %MON DYF_min                      =   2.0000000000000E+02
(PID.TID 0000.0001) %MON DYF_mean                     =   2.0000000000000E+02
(PID.TID 0000.0001) %MON DYF_sd                       =   0.0000000000000E+00
(PID.TID 0000.0001) %MON DYG_max                      =   2.0000000000000E+02
(PID.TID 0000.0001) %MON DYG_min                      =   2.0000000000000E+02
(PID.TID 0000.0001) %MON DYG_mean                     =   2.0000000000000E+02
(PID.TID 0000.0001) %MON DYG_sd                       =   0.0000000000000E+00
(PID.TID 0000.0001) %MON DYU_max                      =   2.0000000000000E+02
(PID.TID 0000.0001) %MON DYU_min                      =   2.0000000000000E+02
(PID.TID 0000.0001) %MON DYU_mean                     =   2.0000000000000E+02
(PID.TID 0000.0001) %MON DYU_sd                       =   0.0000000000000E+00
(PID.TID 0000.0001) %MON RA_max                       =   4.0000000000000E+04
(PID.TID 0000.0001) %MON RA_min                       =   4.0000000000000E+04
(PID.TID 0000.0001) %MON RA_mean                      =   4.0000000000000E+04
(PID.TID 0000.0001) %MON RA_sd                        =   0.0000000000000E+00
(PID.TID 0000.0001) %MON RAW_max                      =   4.0000000000000E+04
(PID.TID 0000.0001) %MON RAW_min                      =   4.0000000000000E+04
(PID.TID 0000.0001) %MON RAW_mean                     =   4.0000000000000E+04
(PID.TID 0000.0001) %MON RAW_sd                       =   0.0000000000000E+00
(PID.TID 0000.0001) %MON RAS_max                      =   4.0000000000000E+04
(PID.TID 0000.0001) %MON RAS_min                      =   4.0000000000000E+04
(PID.TID 0000.0001) %MON RAS_mean                     =   4.0000000000000E+04
(PID.TID 0000.0001) %MON RAS_sd                       =   0.0000000000000E+00
(PID.TID 0000.0001) %MON RAZ_max                      =   4.0000000000000E+04
(PID.TID 0000.0001) %MON RAZ_min                      =   4.0000000000000E+04
(PID.TID 0000.0001) %MON RAZ_mean                     =   4.0000000000000E+04
(PID.TID 0000.0001) %MON RAZ_sd                       =   0.0000000000000E+00
(PID.TID 0000.0001) %MON AngleCS_max                  =   1.0000000000000E+00
(PID.TID 0000.0001) %MON AngleCS_min                  =   1.0000000000000E+00
(PID.TID 0000.0001) %MON AngleCS_mean                 =   1.0000000000000E+00
(PID.TID 0000.0001) %MON AngleCS_sd                   =   0.0000000000000E+00
(PID.TID 0000.0001) %MON AngleSN_max                  =   0.0000000000000E+00
(PID.TID 0000.0001) %MON AngleSN_min                  =   0.0000000000000E+00
(PID.TID 0000.0001) %MON AngleSN_mean                 =   0.0000000000000E+00
(PID.TID 0000.0001) %MON AngleSN_sd                   =   0.0000000000000E+00
(PID.TID 0000.0001)  MDS_READ_FIELD: opening global file: topog.slope
(PID.TID 0000.0001)  MDS_READ_FIELD: opening global file: icetopo.exp1
(PID.TID 0000.0001) GAD_INIT_FIXED: GAD_OlMinSize=  2  0  1
(PID.TID 0000.0001) 
(PID.TID 0000.0001) // ===================================
(PID.TID 0000.0001) // GAD parameters :
(PID.TID 0000.0001) // ===================================
(PID.TID 0000.0001) tempAdvScheme =   /* Temp. Horiz.Advection scheme selector */
(PID.TID 0000.0001)                      33
(PID.TID 0000.0001)     ;
(PID.TID 0000.0001) tempVertAdvScheme =   /* Temp. Vert. Advection scheme selector */
(PID.TID 0000.0001)                      33
(PID.TID 0000.0001)     ;
(PID.TID 0000.0001) tempMultiDimAdvec =   /* use Muti-Dim Advec method for Temp */
(PID.TID 0000.0001)                   T
(PID.TID 0000.0001)     ;
(PID.TID 0000.0001) tempSOM_Advection = /* use 2nd Order Moment Advection for Temp */
(PID.TID 0000.0001)                   F
(PID.TID 0000.0001)     ;
(PID.TID 0000.0001) AdamsBashforthGt = /* apply Adams-Bashforth extrapolation on Gt */
(PID.TID 0000.0001)                   F
(PID.TID 0000.0001)     ;
(PID.TID 0000.0001) AdamsBashforth_T = /* apply Adams-Bashforth extrapolation on Temp */
(PID.TID 0000.0001)                   F
(PID.TID 0000.0001)     ;
(PID.TID 0000.0001) saltAdvScheme =   /* Salt. Horiz.advection scheme selector */
(PID.TID 0000.0001)                      33
(PID.TID 0000.0001)     ;
(PID.TID 0000.0001) saltVertAdvScheme =   /* Salt. Vert. Advection scheme selector */
(PID.TID 0000.0001)                      33
(PID.TID 0000.0001)     ;
(PID.TID 0000.0001) saltMultiDimAdvec =   /* use Muti-Dim Advec method for Salt */
(PID.TID 0000.0001)                   T
(PID.TID 0000.0001)     ;
(PID.TID 0000.0001) saltSOM_Advection = /* use 2nd Order Moment Advection for Salt */
(PID.TID 0000.0001)                   F
(PID.TID 0000.0001)     ;
(PID.TID 0000.0001) AdamsBashforthGs = /* apply Adams-Bashforth extrapolation on Gs */
(PID.TID 0000.0001)                   F
(PID.TID 0000.0001)     ;
(PID.TID 0000.0001) AdamsBashforth_S = /* apply Adams-Bashforth extrapolation on Salt */
(PID.TID 0000.0001)                   F
(PID.TID 0000.0001)     ;
(PID.TID 0000.0001) // ===================================
(PID.TID 0000.0001)  MDS_READ_FIELD: opening global file: phi0.exp1
(PID.TID 0000.0001) ------------------------------------------------------------
(PID.TID 0000.0001) DIAGNOSTICS_SET_LEVELS: done
(PID.TID 0000.0001)  Total Nb of available Diagnostics: ndiagt=   209
(PID.TID 0000.0001)  write list of available Diagnostics to file: available_diagnostics.log
(PID.TID 0000.0001) SETDIAG: Allocate100 x  1 Levels for Diagnostic #    26 THETA
(PID.TID 0000.0001) SETDIAG: Allocate100 x  1 Levels for Diagnostic #    27 SALT
(PID.TID 0000.0001) SETDIAG: Allocate100 x  1 Levels for Diagnostic #    30 UVEL
(PID.TID 0000.0001) SETDIAG: Allocate100 x  1 Levels for Diagnostic #    32 WVEL
(PID.TID 0000.0001) SETDIAG: Allocate100 x  1 Levels for Diagnostic #    31 VVEL
(PID.TID 0000.0001) SETDIAG: Allocate100 x  1 Levels for Diagnostic #    59 UVELSLT
(PID.TID 0000.0001) SETDIAG: Allocate100 x  1 Levels for Diagnostic #    56 UVELTH
(PID.TID 0000.0001) SETDIAG: Allocate100 x  1 Levels for Diagnostic #    61 WVELSLT
(PID.TID 0000.0001) SETDIAG: Allocate100 x  1 Levels for Diagnostic #    58 WVELTH
(PID.TID 0000.0001) SETDIAG: Allocate  1 x  1 Levels for Diagnostic #   199 SHIfwFlx
(PID.TID 0000.0001) SETDIAG: Allocate  1 x  1 Levels for Diagnostic #   200 SHIhtFlx
(PID.TID 0000.0001) SETDIAG: Allocate  1 x  1 Levels for Diagnostic #   203 SHIForcT
(PID.TID 0000.0001) SETDIAG: Allocate  1 x  1 Levels for Diagnostic #   204 SHIForcS
(PID.TID 0000.0001) SETDIAG: Allocate  1 x  1 Levels for Diagnostic #   205 SHIgammT
(PID.TID 0000.0001) SETDIAG: Allocate  1 x  1 Levels for Diagnostic #   206 SHIgammS
(PID.TID 0000.0001) SETDIAG: Allocate  1 x  1 Levels for Diagnostic #   208 SHIuStar
(PID.TID 0000.0001) SETDIAG: Allocate100 x  1 Levels for Diagnostic #    30 UVEL
(PID.TID 0000.0001) SETDIAG: Allocate100 x  1 Levels for Diagnostic #    31 VVEL
(PID.TID 0000.0001) SETDIAG: Allocate100 x  1 Levels for Diagnostic #    32 WVEL
(PID.TID 0000.0001) SETDIAG: Allocate100 x  1 Levels for Diagnostic #    26 THETA
(PID.TID 0000.0001) SETDIAG: Allocate100 x  1 Levels for Diagnostic #    27 SALT
(PID.TID 0000.0001)   space allocated for all diagnostics:    1407 levels
(PID.TID 0000.0001)   set mate pointer for diag #    30  UVEL     , Parms: UUR     MR , mate:    31
(PID.TID 0000.0001)   set mate pointer for diag #    31  VVEL     , Parms: VVR     MR , mate:    30
(PID.TID 0000.0001)   set mate pointer for diag #    30  UVEL     , Parms: UUR     MR , mate:    31
(PID.TID 0000.0001)   set mate pointer for diag #    31  VVEL     , Parms: VVR     MR , mate:    30
(PID.TID 0000.0001) DIAGNOSTICS_SET_POINTERS: Set levels for Outp.Stream: dynDiag
(PID.TID 0000.0001)  Levels:       1.   2.   3.   4.   5.   6.   7.   8.   9.  10.  11.  12.  13.  14.  15.  16.  17.  18.  19.  20.
(PID.TID 0000.0001)  Levels:      21.  22.  23.  24.  25.  26.  27.  28.  29.  30.  31.  32.  33.  34.  35.  36.  37.  38.  39.  40.
(PID.TID 0000.0001)  Levels:      41.  42.  43.  44.  45.  46.  47.  48.  49.  50.  51.  52.  53.  54.  55.  56.  57.  58.  59.  60.
(PID.TID 0000.0001)  Levels:      61.  62.  63.  64.  65.  66.  67.  68.  69.  70.  71.  72.  73.  74.  75.  76.  77.  78.  79.  80.
(PID.TID 0000.0001)  Levels:      81.  82.  83.  84.  85.  86.  87.  88.  89.  90.  91.  92.  93.  94.  95.  96.  97.  98.  99. 100.
(PID.TID 0000.0001) DIAGNOSTICS_SET_POINTERS: Set levels for Outp.Stream: fluxDiag
(PID.TID 0000.0001)  Levels:       1.   2.   3.   4.   5.   6.   7.   8.   9.  10.  11.  12.  13.  14.  15.  16.  17.  18.  19.  20.
(PID.TID 0000.0001)  Levels:      21.  22.  23.  24.  25.  26.  27.  28.  29.  30.  31.  32.  33.  34.  35.  36.  37.  38.  39.  40.
(PID.TID 0000.0001)  Levels:      41.  42.  43.  44.  45.  46.  47.  48.  49.  50.  51.  52.  53.  54.  55.  56.  57.  58.  59.  60.
(PID.TID 0000.0001)  Levels:      61.  62.  63.  64.  65.  66.  67.  68.  69.  70.  71.  72.  73.  74.  75.  76.  77.  78.  79.  80.
(PID.TID 0000.0001)  Levels:      81.  82.  83.  84.  85.  86.  87.  88.  89.  90.  91.  92.  93.  94.  95.  96.  97.  98.  99. 100.
(PID.TID 0000.0001) DIAGNOSTICS_SET_POINTERS: Set levels for Outp.Stream: SHIflux
(PID.TID 0000.0001)  Levels:       1.
(PID.TID 0000.0001) DIAGNOSTICS_SET_POINTERS: Set levels for Outp.Stream: SHIgamma
(PID.TID 0000.0001)  Levels:       1.
(PID.TID 0000.0001) DIAGNOSTICS_SET_POINTERS: Set levels for Outp.Stream: dynDiag_inst
(PID.TID 0000.0001)  Levels:       1.   2.   3.   4.   5.   6.   7.   8.   9.  10.  11.  12.  13.  14.  15.  16.  17.  18.  19.  20.
(PID.TID 0000.0001)  Levels:      21.  22.  23.  24.  25.  26.  27.  28.  29.  30.  31.  32.  33.  34.  35.  36.  37.  38.  39.  40.
(PID.TID 0000.0001)  Levels:      41.  42.  43.  44.  45.  46.  47.  48.  49.  50.  51.  52.  53.  54.  55.  56.  57.  58.  59.  60.
(PID.TID 0000.0001)  Levels:      61.  62.  63.  64.  65.  66.  67.  68.  69.  70.  71.  72.  73.  74.  75.  76.  77.  78.  79.  80.
(PID.TID 0000.0001)  Levels:      81.  82.  83.  84.  85.  86.  87.  88.  89.  90.  91.  92.  93.  94.  95.  96.  97.  98.  99. 100.
(PID.TID 0000.0001) DIAGNOSTICS_SET_POINTERS: done, use    1407 levels (numDiags =    2500 )
(PID.TID 0000.0001) ------------------------------------------------------------
(PID.TID 0000.0001) DIAGSTATS_SET_REGIONS: define no region
(PID.TID 0000.0001) ------------------------------------------------------------
(PID.TID 0000.0001)   space allocated for all stats-diags:       0 levels
(PID.TID 0000.0001) DIAGSTATS_SET_POINTERS: done, use       0 levels (diagSt_size=     900 )
(PID.TID 0000.0001) ------------------------------------------------------------
(PID.TID 0000.0001) %MON fCori_max                    =   1.3600000000000E-04
(PID.TID 0000.0001) %MON fCori_min                    =   1.3600000000000E-04
(PID.TID 0000.0001) %MON fCori_mean                   =   1.3600000000001E-04
(PID.TID 0000.0001) %MON fCori_sd                     =   1.0083080204115E-17
(PID.TID 0000.0001) %MON fCoriG_max                   =   1.3600000000000E-04
(PID.TID 0000.0001) %MON fCoriG_min                   =   1.3600000000000E-04
(PID.TID 0000.0001) %MON fCoriG_mean                  =   1.3600000000001E-04
(PID.TID 0000.0001) %MON fCoriG_sd                    =   1.0083080204115E-17
(PID.TID 0000.0001) %MON fCoriCos_max                 =   0.0000000000000E+00
(PID.TID 0000.0001) %MON fCoriCos_min                 =   0.0000000000000E+00
(PID.TID 0000.0001) %MON fCoriCos_mean                =   0.0000000000000E+00
(PID.TID 0000.0001) %MON fCoriCos_sd                  =   0.0000000000000E+00
(PID.TID 0000.0001) INI_CG2D: CG2D normalisation factor =  4.9999999999999992E-03
(PID.TID 0000.0001) 
(PID.TID 0000.0001) INI_CG3D: CG3D normalisation factor =  9.0954684874999994E-06
(PID.TID 0000.0001) 
(PID.TID 0000.0001) // =======================================================
(PID.TID 0000.0001) // Model configuration
(PID.TID 0000.0001) // =======================================================
(PID.TID 0000.0001) //
(PID.TID 0000.0001) // "Physical" paramters ( PARM01 in namelist )
(PID.TID 0000.0001) //
(PID.TID 0000.0001) buoyancyRelation = /* Type of relation to get Buoyancy */
(PID.TID 0000.0001)               'OCEANIC'
(PID.TID 0000.0001)     ;
(PID.TID 0000.0001) fluidIsAir   =  /* fluid major constituent is Air */
(PID.TID 0000.0001)                   F
(PID.TID 0000.0001)     ;
(PID.TID 0000.0001) fluidIsWater =  /* fluid major constituent is Water */
(PID.TID 0000.0001)                   T
(PID.TID 0000.0001)     ;
(PID.TID 0000.0001) usingPCoords =  /* use p (or p*) vertical coordinate */
(PID.TID 0000.0001)                   F
(PID.TID 0000.0001)     ;
(PID.TID 0000.0001) usingZCoords =  /* use z (or z*) vertical coordinate */
(PID.TID 0000.0001)                   T
(PID.TID 0000.0001)     ;
(PID.TID 0000.0001) tRef =   /* Reference temperature profile ( oC or K ) */
(PID.TID 0000.0001)   100 @  0.000000000000000E+00              /* K =  1:100 */
(PID.TID 0000.0001)     ;
(PID.TID 0000.0001) sRef =   /* Reference salinity profile ( g/kg ) */
(PID.TID 0000.0001)   100 @  3.400000000000000E+01              /* K =  1:100 */
(PID.TID 0000.0001)     ;
(PID.TID 0000.0001) rhoRef =   /* Density vertical profile from (Ref,sRef)( kg/m^3 ) */
(PID.TID 0000.0001)                 1.027299789601834E+03,      /* K =  1 */
(PID.TID 0000.0001)                 1.027301491961266E+03,      /* K =  2 */
(PID.TID 0000.0001)                 1.027303194495834E+03,      /* K =  3 */
(PID.TID 0000.0001)                 1.027304897247350E+03,      /* K =  4 */
(PID.TID 0000.0001)                 1.027306600266888E+03,      /* K =  5 */
(PID.TID 0000.0001)                 1.027308303616821E+03,      /* K =  6 */
(PID.TID 0000.0001)                 1.027310007373324E+03,      /* K =  7 */
(PID.TID 0000.0001)                 1.027311711629425E+03,      /* K =  8 */
(PID.TID 0000.0001)                 1.027313416498735E+03,      /* K =  9 */
(PID.TID 0000.0001)                 1.027315122119992E+03,      /* K = 10 */
(PID.TID 0000.0001)                 1.027316828662618E+03,      /* K = 11 */
(PID.TID 0000.0001)                 1.027318536333492E+03,      /* K = 12 */
(PID.TID 0000.0001)                 1.027320245385214E+03,      /* K = 13 */
(PID.TID 0000.0001)                 1.027321956126194E+03,      /* K = 14 */
(PID.TID 0000.0001)                 1.027323668932955E+03,      /* K = 15 */
(PID.TID 0000.0001)                 1.027325384265120E+03,      /* K = 16 */
(PID.TID 0000.0001)                 1.027327102683689E+03,      /* K = 17 */
(PID.TID 0000.0001)                 1.027328824873296E+03,      /* K = 18 */
(PID.TID 0000.0001)                 1.027330551669306E+03,      /* K = 19 */
(PID.TID 0000.0001)                 1.027332284090769E+03,      /* K = 20 */
(PID.TID 0000.0001)                 1.027334023380465E+03,      /* K = 21 */
(PID.TID 0000.0001)                 1.027335771053528E+03,      /* K = 22 */
(PID.TID 0000.0001)                 1.027337528956381E+03,      /* K = 23 */
(PID.TID 0000.0001)                 1.027339299338049E+03,      /* K = 24 */
(PID.TID 0000.0001)                 1.027341084936283E+03,      /* K = 25 */
(PID.TID 0000.0001)                 1.027342889081306E+03,      /* K = 26 */
(PID.TID 0000.0001)                 1.027344715820368E+03,      /* K = 27 */
(PID.TID 0000.0001)                 1.027346570066720E+03,      /* K = 28 */
(PID.TID 0000.0001)                 1.027348457776922E+03,      /* K = 29 */
(PID.TID 0000.0001)                 1.027350386160571E+03,      /* K = 30 */
(PID.TID 0000.0001)                 1.027352363926520E+03,      /* K = 31 */
(PID.TID 0000.0001)                 1.027354401569162E+03,      /* K = 32 */
(PID.TID 0000.0001)                 1.027356511697198E+03,      /* K = 33 */
(PID.TID 0000.0001)                 1.027358709405295E+03,      /* K = 34 */
(PID.TID 0000.0001)                 1.027361012685519E+03,      /* K = 35 */
(PID.TID 0000.0001)                 1.027363442870136E+03,      /* K = 36 */
(PID.TID 0000.0001)                 1.027366025089688E+03,      /* K = 37 */
(PID.TID 0000.0001)                 1.027368788719704E+03,      /* K = 38 */
(PID.TID 0000.0001)                 1.027371767775792E+03,      /* K = 39 */
(PID.TID 0000.0001)                 1.027375001200622E+03,      /* K = 40 */
(PID.TID 0000.0001)                 1.027378532968666E+03,      /* K = 41 */
(PID.TID 0000.0001)                 1.027382411918541E+03,      /* K = 42 */
(PID.TID 0000.0001)                 1.027386691213165E+03,      /* K = 43 */
(PID.TID 0000.0001)                 1.027391427331377E+03,      /* K = 44 */
(PID.TID 0000.0001)                 1.027396678519075E+03,      /* K = 45 */
(PID.TID 0000.0001)                 1.027402502679825E+03,      /* K = 46 */
(PID.TID 0000.0001)                 1.027408954765739E+03,      /* K = 47 */
(PID.TID 0000.0001)                 1.027416083831926E+03,      /* K = 48 */
(PID.TID 0000.0001)                 1.027423930022831E+03,      /* K = 49 */
(PID.TID 0000.0001)                 1.027432521837327E+03,      /* K = 50 */
(PID.TID 0000.0001)                 1.027441874040012E+03,      /* K = 51 */
(PID.TID 0000.0001)                 1.027451986529265E+03,      /* K = 52 */
(PID.TID 0000.0001)                 1.027462844340555E+03,      /* K = 53 */
(PID.TID 0000.0001)                 1.027474418784651E+03,      /* K = 54 */
(PID.TID 0000.0001)                 1.027486669541600E+03,      /* K = 55 */
(PID.TID 0000.0001)                 1.027499547399473E+03,      /* K = 56 */
(PID.TID 0000.0001)                 1.027512997270250E+03,      /* K = 57 */
(PID.TID 0000.0001)                 1.027526961136022E+03,      /* K = 58 */
(PID.TID 0000.0001)                 1.027541380657438E+03,      /* K = 59 */
(PID.TID 0000.0001)                 1.027556199281465E+03,      /* K = 60 */
(PID.TID 0000.0001)                 1.027571363788026E+03,      /* K = 61 */
(PID.TID 0000.0001)                 1.027586825295877E+03,      /* K = 62 */
(PID.TID 0000.0001)                 1.027602539799870E+03,      /* K = 63 */
(PID.TID 0000.0001)                 1.027618468336280E+03,      /* K = 64 */
(PID.TID 0000.0001)                 1.027634576875966E+03,      /* K = 65 */
(PID.TID 0000.0001)                 1.027650836035559E+03,      /* K = 66 */
(PID.TID 0000.0001)                 1.027667220680920E+03,      /* K = 67 */
(PID.TID 0000.0001)                 1.027683709479198E+03,      /* K = 68 */
(PID.TID 0000.0001)                 1.027700284439851E+03,      /* K = 69 */
(PID.TID 0000.0001)                 1.027716930471118E+03,      /* K = 70 */
(PID.TID 0000.0001)                 1.027733634968007E+03,      /* K = 71 */
(PID.TID 0000.0001)                 1.027750387440327E+03,      /* K = 72 */
(PID.TID 0000.0001)                 1.027767179183562E+03,      /* K = 73 */
(PID.TID 0000.0001)                 1.027784002992404E+03,      /* K = 74 */
(PID.TID 0000.0001)                 1.027800852914443E+03,      /* K = 75 */
(PID.TID 0000.0001)                 1.027817724040306E+03,      /* K = 76 */
(PID.TID 0000.0001)                 1.027834612326333E+03,      /* K = 77 */
(PID.TID 0000.0001)                 1.027851514445593E+03,      /* K = 78 */
(PID.TID 0000.0001)                 1.027868427663282E+03,      /* K = 79 */
(PID.TID 0000.0001)                 1.027885349733016E+03,      /* K = 80 */
(PID.TID 0000.0001)                 1.027902278810762E+03,      /* K = 81 */
(PID.TID 0000.0001)                 1.027919213383480E+03,      /* K = 82 */
(PID.TID 0000.0001)                 1.027936152210219E+03,      /* K = 83 */
(PID.TID 0000.0001)                 1.027953094273531E+03,      /* K = 84 */
(PID.TID 0000.0001)                 1.027970038739467E+03,      /* K = 85 */
(PID.TID 0000.0001)                 1.027986984924635E+03,      /* K = 86 */
(PID.TID 0000.0001)                 1.028003932269100E+03,      /* K = 87 */
(PID.TID 0000.0001)                 1.028020880314180E+03,      /* K = 88 */
(PID.TID 0000.0001)                 1.028037828684198E+03,      /* K = 89 */
(PID.TID 0000.0001)                 1.028054777071434E+03,      /* K = 90 */
(PID.TID 0000.0001)                 1.028071725223910E+03,      /* K = 91 */
(PID.TID 0000.0001)                 1.028088672935296E+03,      /* K = 92 */
(PID.TID 0000.0001)                 1.028105620036643E+03,      /* K = 93 */
(PID.TID 0000.0001)                 1.028122566389630E+03,      /* K = 94 */
(PID.TID 0000.0001)                 1.028139511880985E+03,      /* K = 95 */
(PID.TID 0000.0001)                 1.028156456418023E+03,      /* K = 96 */
(PID.TID 0000.0001)                 1.028173399924866E+03,      /* K = 97 */
(PID.TID 0000.0001)                 1.028190342339379E+03,      /* K = 98 */
(PID.TID 0000.0001)                 1.028207283610702E+03,      /* K = 99 */
(PID.TID 0000.0001)                 1.028224223697237E+03       /* K =100 */
(PID.TID 0000.0001)     ;
(PID.TID 0000.0001) dBdrRef = /* Vertical grad. of reference buoyancy [(m/s/r)^2] */
(PID.TID 0000.0001)   100 @  0.000000000000000E+00              /* K =  1:100 */
(PID.TID 0000.0001)     ;
(PID.TID 0000.0001) useStrainTensionVisc= /* Use StrainTension Form of Viscous Operator */
(PID.TID 0000.0001)                   F
(PID.TID 0000.0001)     ;
(PID.TID 0000.0001) useVariableVisc = /* Use variable horizontal viscosity */
(PID.TID 0000.0001)                   F
(PID.TID 0000.0001)     ;
(PID.TID 0000.0001) useHarmonicVisc = /* Use harmonic horizontal viscosity */
(PID.TID 0000.0001)                   T
(PID.TID 0000.0001)     ;
(PID.TID 0000.0001) useBiharmonicVisc= /* Use biharmonic horiz.  viscosity */
(PID.TID 0000.0001)                   F
(PID.TID 0000.0001)     ;
(PID.TID 0000.0001) useSmag3D = /* Use isotropic 3-D Smagorinsky viscosity */
(PID.TID 0000.0001)                   F
(PID.TID 0000.0001)     ;
(PID.TID 0000.0001) viscAh  =   /* Lateral harmonic viscosity ( m^2/s ) */
(PID.TID 0000.0001)                 2.500000000000000E-01
(PID.TID 0000.0001)     ;
(PID.TID 0000.0001) viscAhW =   /* Lateral harmonic viscosity in W eq. ( m^2/s ) */
(PID.TID 0000.0001)                 2.500000000000000E-01
(PID.TID 0000.0001)     ;
(PID.TID 0000.0001) viscA4  =   /* Lateral biharmonic viscosity ( m^4/s ) */
(PID.TID 0000.0001)                 0.000000000000000E+00
(PID.TID 0000.0001)     ;
(PID.TID 0000.0001) viscA4W =   /* Lateral biharmonic viscosity in W eq. ( m^2/s ) */
(PID.TID 0000.0001)                 0.000000000000000E+00
(PID.TID 0000.0001)     ;
(PID.TID 0000.0001) no_slip_sides =  /* Viscous BCs: No-slip sides */
(PID.TID 0000.0001)                   T
(PID.TID 0000.0001)     ;
(PID.TID 0000.0001) sideDragFactor = /* side-drag scaling factor (non-dim) */
(PID.TID 0000.0001)                 2.000000000000000E+00
(PID.TID 0000.0001)     ;
(PID.TID 0000.0001) viscArNr = /* vertical profile of vertical viscosity ( m^2/s )*/
(PID.TID 0000.0001)   100 @  1.000000000000000E-03              /* K =  1:100 */
(PID.TID 0000.0001)     ;
(PID.TID 0000.0001) no_slip_bottom =  /* Viscous BCs: No-slip bottom */
(PID.TID 0000.0001)                   T
(PID.TID 0000.0001)     ;
(PID.TID 0000.0001) bottomVisc_pCell = /* Partial-cell in bottom Visc. BC */
(PID.TID 0000.0001)                   F
(PID.TID 0000.0001)     ;
(PID.TID 0000.0001) bottomDragLinear = /* linear bottom-drag coefficient ( m/s ) */
(PID.TID 0000.0001)                 0.000000000000000E+00
(PID.TID 0000.0001)     ;
(PID.TID 0000.0001) bottomDragQuadratic = /* quadratic bottom-drag coefficient (-) */
(PID.TID 0000.0001)                 0.000000000000000E+00
(PID.TID 0000.0001)     ;
(PID.TID 0000.0001) selectBotDragQuadr = /* select quadratic bottom drag options */
(PID.TID 0000.0001)                      -1
(PID.TID 0000.0001)     ;
(PID.TID 0000.0001) diffKhT =   /* Laplacian diffusion of heat laterally ( m^2/s ) */
(PID.TID 0000.0001)                 2.500000000000000E-01
(PID.TID 0000.0001)     ;
(PID.TID 0000.0001) diffK4T =   /* Biharmonic diffusion of heat laterally ( m^4/s ) */
(PID.TID 0000.0001)                 0.000000000000000E+00
(PID.TID 0000.0001)     ;
(PID.TID 0000.0001) diffKhS =   /* Laplacian diffusion of salt laterally ( m^2/s ) */
(PID.TID 0000.0001)                 2.500000000000000E-01
(PID.TID 0000.0001)     ;
(PID.TID 0000.0001) diffK4S =   /* Biharmonic diffusion of salt laterally ( m^4/s ) */
(PID.TID 0000.0001)                 0.000000000000000E+00
(PID.TID 0000.0001)     ;
(PID.TID 0000.0001) diffKrNrT = /* vertical profile of vertical diffusion of Temp ( m^2/s )*/
(PID.TID 0000.0001)   100 @  2.000000000000000E-05              /* K =  1:100 */
(PID.TID 0000.0001)     ;
(PID.TID 0000.0001) diffKrNrS = /* vertical profile of vertical diffusion of Salt ( m^2/s )*/
(PID.TID 0000.0001)   100 @  2.000000000000000E-05              /* K =  1:100 */
(PID.TID 0000.0001)     ;
(PID.TID 0000.0001) diffKrBL79surf = /* Surface diffusion for Bryan and Lewis 79 ( m^2/s ) */
(PID.TID 0000.0001)                 0.000000000000000E+00
(PID.TID 0000.0001)     ;
(PID.TID 0000.0001) diffKrBL79deep = /* Deep diffusion for Bryan and Lewis 1979 ( m^2/s ) */
(PID.TID 0000.0001)                 0.000000000000000E+00
(PID.TID 0000.0001)     ;
(PID.TID 0000.0001) diffKrBL79scl = /* Depth scale for Bryan and Lewis 1979 ( m ) */
(PID.TID 0000.0001)                 2.000000000000000E+02
(PID.TID 0000.0001)     ;
(PID.TID 0000.0001) diffKrBL79Ho = /* Turning depth for Bryan and Lewis 1979 ( m ) */
(PID.TID 0000.0001)                -2.000000000000000E+03
(PID.TID 0000.0001)     ;
(PID.TID 0000.0001) ivdc_kappa = /* Implicit Vertical Diffusivity for Convection ( m^2/s) */
(PID.TID 0000.0001)                 0.000000000000000E+00
(PID.TID 0000.0001)     ;
(PID.TID 0000.0001) hMixCriteria=  /* Criteria for mixed-layer diagnostic */
(PID.TID 0000.0001)                -8.000000000000000E-01
(PID.TID 0000.0001)     ;
(PID.TID 0000.0001) dRhoSmall =  /* Parameter for mixed-layer diagnostic */
(PID.TID 0000.0001)                 1.000000000000000E-06
(PID.TID 0000.0001)     ;
(PID.TID 0000.0001) hMixSmooth=  /* Smoothing parameter for mixed-layer diagnostic */
(PID.TID 0000.0001)                 0.000000000000000E+00
(PID.TID 0000.0001)     ;
(PID.TID 0000.0001) eosType =  /* Type of Equation of State */
(PID.TID 0000.0001)               'JMD95Z'
(PID.TID 0000.0001)     ;
(PID.TID 0000.0001) eosRefP0 = /* Reference atmospheric pressure for EOS ( Pa ) */
(PID.TID 0000.0001)                 1.013250000000000E+05
(PID.TID 0000.0001)     ;
(PID.TID 0000.0001) selectP_inEOS_Zc = /* select pressure to use in EOS (0,1,2,3) */
(PID.TID 0000.0001)                       0
(PID.TID 0000.0001)     0= -g*rhoConst*z ; 1= pRef (from tRef,sRef); 2= Hyd P ; 3= Hyd+NH P
(PID.TID 0000.0001)     ;
(PID.TID 0000.0001) surf_pRef = /* Surface reference pressure ( Pa ) */
(PID.TID 0000.0001)                 1.013250000000000E+05
(PID.TID 0000.0001)     ;
(PID.TID 0000.0001) HeatCapacity_Cp =  /* Specific heat capacity ( J/kg/K ) */
(PID.TID 0000.0001)                 3.994000000000000E+03
(PID.TID 0000.0001)     ;
(PID.TID 0000.0001) celsius2K = /* 0 degree Celsius converted to Kelvin ( K ) */
(PID.TID 0000.0001)                 2.731500000000000E+02
(PID.TID 0000.0001)     ;
(PID.TID 0000.0001) rhoConst  = /* Reference density (Boussinesq)  ( kg/m^3 ) */
(PID.TID 0000.0001)                 9.998000000000000E+02
(PID.TID 0000.0001)     ;
(PID.TID 0000.0001) rhoFacC = /* normalized Reference density @ cell-Center (-) */
(PID.TID 0000.0001)   100 @  1.000000000000000E+00              /* K =  1:100 */
(PID.TID 0000.0001)     ;
(PID.TID 0000.0001) rhoFacF = /* normalized Reference density @ W-Interface (-) */
(PID.TID 0000.0001)   101 @  1.000000000000000E+00              /* K =  1:101 */
(PID.TID 0000.0001)     ;
(PID.TID 0000.0001) rhoConstFresh = /* Fresh-water reference density ( kg/m^3 ) */
(PID.TID 0000.0001)                 9.998000000000000E+02
(PID.TID 0000.0001)     ;
(PID.TID 0000.0001) gravity =   /* Gravitational acceleration ( m/s^2 ) */
(PID.TID 0000.0001)                 9.810000000000000E+00
(PID.TID 0000.0001)     ;
(PID.TID 0000.0001) gBaro =   /* Barotropic gravity ( m/s^2 ) */
(PID.TID 0000.0001)                 9.810000000000000E+00
(PID.TID 0000.0001)     ;
(PID.TID 0000.0001) gravFacC = /* gravity factor (vs surf.) @ cell-Center (-) */
(PID.TID 0000.0001)   100 @  1.000000000000000E+00              /* K =  1:100 */
(PID.TID 0000.0001)     ;
(PID.TID 0000.0001) gravFacF = /* gravity factor (vs surf.) @ W-Interface (-) */
(PID.TID 0000.0001)   101 @  1.000000000000000E+00              /* K =  1:101 */
(PID.TID 0000.0001)     ;
(PID.TID 0000.0001) rotationPeriod =   /* Rotation Period ( s ) */
(PID.TID 0000.0001)                 8.616400000000000E+04
(PID.TID 0000.0001)     ;
(PID.TID 0000.0001) omega =   /* Angular velocity ( rad/s ) */
(PID.TID 0000.0001)                 7.292123516990375E-05
(PID.TID 0000.0001)     ;
(PID.TID 0000.0001) f0 =   /* Reference coriolis parameter ( 1/s ) */
(PID.TID 0000.0001)                 1.360000000000000E-04
(PID.TID 0000.0001)     ;
(PID.TID 0000.0001) beta =   /* Beta ( 1/(m.s) ) */
(PID.TID 0000.0001)                 0.000000000000000E+00
(PID.TID 0000.0001)     ;
(PID.TID 0000.0001) fPrime =   /* Second coriolis parameter ( 1/s ) */
(PID.TID 0000.0001)                 0.000000000000000E+00
(PID.TID 0000.0001)     ;
(PID.TID 0000.0001) rigidLid =   /* Rigid lid on/off flag */
(PID.TID 0000.0001)                   T
(PID.TID 0000.0001)     ;
(PID.TID 0000.0001) implicitFreeSurface =   /* Implicit free surface on/off flag */
(PID.TID 0000.0001)                   F
(PID.TID 0000.0001)     ;
(PID.TID 0000.0001) freeSurfFac =   /* Implicit free surface factor */
(PID.TID 0000.0001)                 0.000000000000000E+00
(PID.TID 0000.0001)     ;
(PID.TID 0000.0001) implicSurfPress =  /* Surface Pressure implicit factor (0-1) */
(PID.TID 0000.0001)                 1.000000000000000E+00
(PID.TID 0000.0001)     ;
(PID.TID 0000.0001) implicDiv2DFlow =  /* Barot. Flow Div. implicit factor (0-1) */
(PID.TID 0000.0001)                 1.000000000000000E+00
(PID.TID 0000.0001)     ;
(PID.TID 0000.0001) uniformLin_PhiSurf = /* use uniform Bo_surf on/off flag */
(PID.TID 0000.0001)                   T
(PID.TID 0000.0001)     ;
(PID.TID 0000.0001) uniformFreeSurfLev = /* free-surface level-index is uniform */
(PID.TID 0000.0001)                   F
(PID.TID 0000.0001)     ;
(PID.TID 0000.0001) sIceLoadFac =  /* scale factor for sIceLoad (0-1) */
(PID.TID 0000.0001)                 1.000000000000000E+00
(PID.TID 0000.0001)     ;
(PID.TID 0000.0001) hFacMin =   /* minimum partial cell factor (hFac) */
(PID.TID 0000.0001)                 5.000000000000000E-02
(PID.TID 0000.0001)     ;
(PID.TID 0000.0001) hFacMinDr = /* minimum partial cell thickness ( m) */
(PID.TID 0000.0001)                 0.000000000000000E+00
(PID.TID 0000.0001)     ;
(PID.TID 0000.0001) exactConserv =  /* Exact Volume Conservation on/off flag */
(PID.TID 0000.0001)                   F
(PID.TID 0000.0001)     ;
(PID.TID 0000.0001) linFSConserveTr = /* Tracer correction for Lin Free Surface on/off flag */
(PID.TID 0000.0001)                   F
(PID.TID 0000.0001)     ;
(PID.TID 0000.0001) nonlinFreeSurf = /* Non-linear Free Surf. options (-1,0,1,2,3)*/
(PID.TID 0000.0001)                       0
(PID.TID 0000.0001)      -1,0= Off ; 1,2,3= On, 2=+rescale gU,gV, 3=+update cg2d solv.
(PID.TID 0000.0001)     ;
(PID.TID 0000.0001) hFacInf =   /* lower threshold for hFac (nonlinFreeSurf only)*/
(PID.TID 0000.0001)                 2.000000000000000E-01
(PID.TID 0000.0001)     ;
(PID.TID 0000.0001) hFacSup =   /* upper threshold for hFac (nonlinFreeSurf only)*/
(PID.TID 0000.0001)                 2.000000000000000E+00
(PID.TID 0000.0001)     ;
(PID.TID 0000.0001) select_rStar = /* r* Vertical coord. options (=0 r coord.; >0 uses r*)*/
(PID.TID 0000.0001)                       0
(PID.TID 0000.0001)     ;
(PID.TID 0000.0001) useRealFreshWaterFlux = /* Real Fresh Water Flux on/off flag*/
(PID.TID 0000.0001)                   F
(PID.TID 0000.0001)     ;
(PID.TID 0000.0001) temp_EvPrRn = /* Temp. of Evap/Prec/R (UNSET=use local T)(oC)*/
(PID.TID 0000.0001)                 1.234567000000000E+05
(PID.TID 0000.0001)     ;
(PID.TID 0000.0001) salt_EvPrRn = /* Salin. of Evap/Prec/R (UNSET=use local S)(g/kg)*/
(PID.TID 0000.0001)                 0.000000000000000E+00
(PID.TID 0000.0001)     ;
(PID.TID 0000.0001) selectAddFluid = /* option for mass source/sink of fluid (=0: off) */
(PID.TID 0000.0001)                       0
(PID.TID 0000.0001)     ;
(PID.TID 0000.0001) temp_addMass = /* Temp. of addMass array (UNSET=use local T)(oC)*/
(PID.TID 0000.0001)                 1.234567000000000E+05
(PID.TID 0000.0001)     ;
(PID.TID 0000.0001) salt_addMass = /* Salin. of addMass array (UNSET=use local S)(g/kg)*/
(PID.TID 0000.0001)                 0.000000000000000E+00
(PID.TID 0000.0001)     ;
(PID.TID 0000.0001) convertFW2Salt = /* convert F.W. Flux to Salt Flux (-1=use local S)(g/kg)*/
(PID.TID 0000.0001)                 3.500000000000000E+01
(PID.TID 0000.0001)     ;
(PID.TID 0000.0001) use3Dsolver = /* use 3-D pressure solver on/off flag */
(PID.TID 0000.0001)                   T
(PID.TID 0000.0001)     ;
(PID.TID 0000.0001) nonHydrostatic =  /* Non-Hydrostatic on/off flag */
(PID.TID 0000.0001)                   T
(PID.TID 0000.0001)     ;
(PID.TID 0000.0001) nh_Am2 = /* Non-Hydrostatic terms scaling factor */
(PID.TID 0000.0001)                 1.000000000000000E+00
(PID.TID 0000.0001)     ;
(PID.TID 0000.0001) implicitNHPress = /* Non-Hyd Pressure implicit factor (0-1)*/
(PID.TID 0000.0001)                 1.000000000000000E+00
(PID.TID 0000.0001)     ;
(PID.TID 0000.0001) selectNHfreeSurf = /* Non-Hyd (free-)Surface option */
(PID.TID 0000.0001)                       0
(PID.TID 0000.0001)     ;
(PID.TID 0000.0001) quasiHydrostatic = /* Quasi-Hydrostatic on/off flag */
(PID.TID 0000.0001)                   F
(PID.TID 0000.0001)     ;
(PID.TID 0000.0001) calc_wVelocity = /* vertical velocity calculation on/off flag */
(PID.TID 0000.0001)                   T
(PID.TID 0000.0001)     ;
(PID.TID 0000.0001) momStepping =  /* Momentum equation on/off flag */
(PID.TID 0000.0001)                   T
(PID.TID 0000.0001)     ;
(PID.TID 0000.0001) vectorInvariantMomentum= /* Vector-Invariant Momentum on/off */
(PID.TID 0000.0001)                   T
(PID.TID 0000.0001)     ;
(PID.TID 0000.0001) momAdvection =  /* Momentum advection on/off flag */
(PID.TID 0000.0001)                   T
(PID.TID 0000.0001)     ;
(PID.TID 0000.0001) momViscosity =  /* Momentum viscosity on/off flag */
(PID.TID 0000.0001)                   T
(PID.TID 0000.0001)     ;
(PID.TID 0000.0001) momImplVertAdv= /* Momentum implicit vert. advection on/off*/
(PID.TID 0000.0001)                   F
(PID.TID 0000.0001)     ;
(PID.TID 0000.0001) implicitViscosity = /* Implicit viscosity on/off flag */
(PID.TID 0000.0001)                   T
(PID.TID 0000.0001)     ;
(PID.TID 0000.0001) selectImplicitDrag= /* Implicit bot Drag options (0,1,2)*/
(PID.TID 0000.0001)                       0
(PID.TID 0000.0001)     0= Expl. ; 1= Impl. on provis. Vel ; 2= Fully Impl (with surf.P)
(PID.TID 0000.0001)     ;
(PID.TID 0000.0001) selectMetricTerms= /* Metric-Terms on/off flag (=0/1) */
(PID.TID 0000.0001)                       0
(PID.TID 0000.0001)     ;
(PID.TID 0000.0001) useNHMTerms = /* Non-Hydrostatic Metric-Terms on/off */
(PID.TID 0000.0001)                   F
(PID.TID 0000.0001)     ;
(PID.TID 0000.0001) selectCoriMap = /* Coriolis Map options (0,1,2,3)*/
(PID.TID 0000.0001)                       1
(PID.TID 0000.0001)     0= f-Plane ; 1= Beta-Plane ; 2= Spherical ; 3= read from file
(PID.TID 0000.0001)     ;
(PID.TID 0000.0001) select3dCoriScheme= /* 3-D Coriolis on/off flag (=0/1) */
(PID.TID 0000.0001)                       0
(PID.TID 0000.0001)     ;
(PID.TID 0000.0001) useCoriolis =  /* Coriolis on/off flag */
(PID.TID 0000.0001)                   T
(PID.TID 0000.0001)     ;
(PID.TID 0000.0001) useCDscheme =  /* CD scheme on/off flag */
(PID.TID 0000.0001)                   F
(PID.TID 0000.0001)     ;
(PID.TID 0000.0001) selectCoriScheme= /* Scheme selector for Coriolis-Term */
(PID.TID 0000.0001)                       0
(PID.TID 0000.0001)    = 0 : original discretization (simple averaging, no hFac)
(PID.TID 0000.0001)    = 1 : Wet-point averaging (Jamar & Ozer 1986)
(PID.TID 0000.0001)    = 2 : hFac weighted average (Angular Mom. conserving)
(PID.TID 0000.0001)    = 3 : energy conserving scheme using hFac weighted average
(PID.TID 0000.0001)     ;
(PID.TID 0000.0001) useAbsVorticity= /* V.I Works with f+zeta in Coriolis */
(PID.TID 0000.0001)                   F
(PID.TID 0000.0001)     ;
(PID.TID 0000.0001) selectVortScheme= /* V.I Scheme selector for Vorticity-Term */
(PID.TID 0000.0001)                       1
(PID.TID 0000.0001)    = 0 : enstrophy (Shallow-Water Eq.) conserving scheme by Sadourny, JAS 75
(PID.TID 0000.0001)    = 1 : same as 0 with modified hFac
(PID.TID 0000.0001)    = 2 : energy conserving scheme (used by Sadourny in JAS 75 paper)
(PID.TID 0000.0001)    = 3 : energy (general) and enstrophy (2D, nonDiv.) conserving scheme
(PID.TID 0000.0001)          from Sadourny (Burridge & Haseler, ECMWF Rep.4, 1977)
(PID.TID 0000.0001)     ;
(PID.TID 0000.0001) useJamartMomAdv= /* V.I Non-linear terms Jamart flag */
(PID.TID 0000.0001)                   F
(PID.TID 0000.0001)     ;
(PID.TID 0000.0001) upwindVorticity= /* V.I Upwind bias vorticity flag */
(PID.TID 0000.0001)                   F
(PID.TID 0000.0001)     ;
(PID.TID 0000.0001) highOrderVorticity= /* V.I High order vort. advect. flag */
(PID.TID 0000.0001)                   F
(PID.TID 0000.0001)     ;
(PID.TID 0000.0001) upwindShear= /* V.I Upwind vertical Shear advection flag */
(PID.TID 0000.0001)                   F
(PID.TID 0000.0001)     ;
(PID.TID 0000.0001) selectKEscheme= /* V.I Kinetic Energy scheme selector */
(PID.TID 0000.0001)                       0
(PID.TID 0000.0001)     ;
(PID.TID 0000.0001) momForcing =  /* Momentum forcing on/off flag */
(PID.TID 0000.0001)                   T
(PID.TID 0000.0001)     ;
(PID.TID 0000.0001) momTidalForcing = /* Momentum Tidal forcing on/off flag */
(PID.TID 0000.0001)                   T
(PID.TID 0000.0001)     ;
(PID.TID 0000.0001) momPressureForcing =  /* Momentum pressure term on/off flag */
(PID.TID 0000.0001)                   T
(PID.TID 0000.0001)     ;
(PID.TID 0000.0001) implicitIntGravWave= /* Implicit Internal Gravity Wave flag */
(PID.TID 0000.0001)                   F
(PID.TID 0000.0001)     ;
(PID.TID 0000.0001) staggerTimeStep =    /* Stagger time stepping on/off flag */
(PID.TID 0000.0001)                   T
(PID.TID 0000.0001)     ;
(PID.TID 0000.0001) doResetHFactors = /* reset thickness factors @ each time-step */
(PID.TID 0000.0001)                   F
(PID.TID 0000.0001)     ;
(PID.TID 0000.0001) multiDimAdvection =  /* enable/disable Multi-Dim Advection */
(PID.TID 0000.0001)                   T
(PID.TID 0000.0001)     ;
(PID.TID 0000.0001) useMultiDimAdvec =   /* Multi-Dim Advection is/is-not used */
(PID.TID 0000.0001)                   T
(PID.TID 0000.0001)     ;
(PID.TID 0000.0001) implicitDiffusion = /* Implicit Diffusion on/off flag */
(PID.TID 0000.0001)                   T
(PID.TID 0000.0001)     ;
(PID.TID 0000.0001) tempStepping =  /* Temperature equation on/off flag */
(PID.TID 0000.0001)                   T
(PID.TID 0000.0001)     ;
(PID.TID 0000.0001) tempAdvection = /* Temperature advection on/off flag */
(PID.TID 0000.0001)                   T
(PID.TID 0000.0001)     ;
(PID.TID 0000.0001) tempImplVertAdv = /* Temp. implicit vert. advection on/off */
(PID.TID 0000.0001)                   F
(PID.TID 0000.0001)     ;
(PID.TID 0000.0001) tempForcing  =  /* Temperature forcing on/off flag */
(PID.TID 0000.0001)                   T
(PID.TID 0000.0001)     ;
(PID.TID 0000.0001) doThetaClimRelax = /* apply SST relaxation on/off flag */
(PID.TID 0000.0001)                   F
(PID.TID 0000.0001)     ;
(PID.TID 0000.0001) tempIsActiveTr = /* Temp. is a dynamically Active Tracer */
(PID.TID 0000.0001)                   T
(PID.TID 0000.0001)     ;
(PID.TID 0000.0001) saltStepping =  /* Salinity equation on/off flag */
(PID.TID 0000.0001)                   T
(PID.TID 0000.0001)     ;
(PID.TID 0000.0001) saltAdvection = /* Salinity advection on/off flag */
(PID.TID 0000.0001)                   T
(PID.TID 0000.0001)     ;
(PID.TID 0000.0001) saltImplVertAdv = /* Sali. implicit vert. advection on/off */
(PID.TID 0000.0001)                   F
(PID.TID 0000.0001)     ;
(PID.TID 0000.0001) saltForcing  =  /* Salinity forcing on/off flag */
(PID.TID 0000.0001)                   T
(PID.TID 0000.0001)     ;
(PID.TID 0000.0001) doSaltClimRelax = /* apply SSS relaxation on/off flag */
(PID.TID 0000.0001)                   F
(PID.TID 0000.0001)     ;
(PID.TID 0000.0001) saltIsActiveTr = /* Salt  is a dynamically Active Tracer */
(PID.TID 0000.0001)                   T
(PID.TID 0000.0001)     ;
(PID.TID 0000.0001)  readBinaryPrec = /* Precision used for reading binary files */
(PID.TID 0000.0001)                      64
(PID.TID 0000.0001)     ;
(PID.TID 0000.0001) writeBinaryPrec = /* Precision used for writing binary files */
(PID.TID 0000.0001)                      32
(PID.TID 0000.0001)     ;
(PID.TID 0000.0001)  rwSuffixType =   /* select format of mds file suffix */
(PID.TID 0000.0001)                       0
(PID.TID 0000.0001)    = 0 : myIter (I10.10) ;   = 1 : 100*myTime (100th sec) ;
(PID.TID 0000.0001)    = 2 : myTime (seconds);   = 3 : myTime/360 (10th of hr);
(PID.TID 0000.0001)    = 4 : myTime/3600 (hours)
(PID.TID 0000.0001)     ;
(PID.TID 0000.0001)  globalFiles = /* write "global" (=not per tile) files */
(PID.TID 0000.0001)                   F
(PID.TID 0000.0001)     ;
(PID.TID 0000.0001)  useSingleCpuIO = /* only master MPI process does I/O */
(PID.TID 0000.0001)                   F
(PID.TID 0000.0001)     ;
(PID.TID 0000.0001)  useSingleCpuInput = /* only master process reads input */
(PID.TID 0000.0001)                   F
(PID.TID 0000.0001)     ;
(PID.TID 0000.0001) /* debLev[*]  : level of debug & auxiliary message printing */
(PID.TID 0000.0001) debLevZero =  0 ; /* level of disabled aux. msg printing */
(PID.TID 0000.0001)    debLevA =  1 ; /* level of minimum  aux. msg printing */
(PID.TID 0000.0001)    debLevB =  2 ; /* level of low aux. print (report read-file opening)*/
(PID.TID 0000.0001)    debLevC =  3 ; /* level of moderate debug prt (most pkgs debug msg) */
(PID.TID 0000.0001)    debLevD =  4 ; /* level of enhanced debug prt (add DEBUG_STATS prt) */
(PID.TID 0000.0001)    debLevE =  5 ; /* level of extensive debug printing */
(PID.TID 0000.0001) debugLevel =  /* select debug printing level */
(PID.TID 0000.0001)                       2
(PID.TID 0000.0001)     ;
(PID.TID 0000.0001)  plotLevel =  /* select PLOT_FIELD printing level */
(PID.TID 0000.0001)                       0
(PID.TID 0000.0001)     ;
(PID.TID 0000.0001) //
(PID.TID 0000.0001) // Elliptic solver(s) paramters ( PARM02 in namelist )
(PID.TID 0000.0001) //
(PID.TID 0000.0001) cg2dMaxIters =   /* Upper limit on 2d con. grad iterations  */
(PID.TID 0000.0001)                     300
(PID.TID 0000.0001)     ;
(PID.TID 0000.0001) cg2dMinItersNSA =   /* Minimum number of iterations of 2d con. grad solver  */
(PID.TID 0000.0001)                       0
(PID.TID 0000.0001)     ;
(PID.TID 0000.0001) cg2dUseMinResSol= /* use cg2d last-iter(=0) / min-resid.(=1) solution */
(PID.TID 0000.0001)                       0
(PID.TID 0000.0001)     ;
(PID.TID 0000.0001) cg2dTargetResidual =   /* 2d con. grad target residual  */
(PID.TID 0000.0001)                 1.000000000000000E-13
(PID.TID 0000.0001)     ;
(PID.TID 0000.0001) cg2dTargetResWunit =   /* CG2d target residual [W units] */
(PID.TID 0000.0001)                -1.000000000000000E+00
(PID.TID 0000.0001)     ;
(PID.TID 0000.0001) cg2dPreCondFreq =   /* Freq. for updating cg2d preconditioner */
(PID.TID 0000.0001)                       1
(PID.TID 0000.0001)     ;
(PID.TID 0000.0001) useSRCGSolver =  /* use single reduction CG solver(s) */
(PID.TID 0000.0001)                   F
(PID.TID 0000.0001)     ;
(PID.TID 0000.0001) useNSACGSolver =  /* use not-self-adjoint CG solver */
(PID.TID 0000.0001)                   F
(PID.TID 0000.0001)     ;
(PID.TID 0000.0001) printResidualFreq = /* Freq. for printing CG residual */
(PID.TID 0000.0001)                       0
(PID.TID 0000.0001)     ;
(PID.TID 0000.0001) //
(PID.TID 0000.0001) // Time stepping paramters ( PARM03 in namelist )
(PID.TID 0000.0001) //
(PID.TID 0000.0001) deltaTMom =   /* Momentum equation timestep ( s ) */
(PID.TID 0000.0001)                 2.000000000000000E+01
(PID.TID 0000.0001)     ;
(PID.TID 0000.0001) deltaTFreeSurf = /* FreeSurface equation timestep ( s ) */
(PID.TID 0000.0001)                 2.000000000000000E+01
(PID.TID 0000.0001)     ;
(PID.TID 0000.0001) dTtracerLev =  /* Tracer equation timestep ( s ) */
(PID.TID 0000.0001)   100 @  2.000000000000000E+01              /* K =  1:100 */
(PID.TID 0000.0001)     ;
(PID.TID 0000.0001) deltaTClock  =   /* Model clock timestep ( s ) */
(PID.TID 0000.0001)                 2.000000000000000E+01
(PID.TID 0000.0001)     ;
(PID.TID 0000.0001) cAdjFreq =   /* Convective adjustment interval ( s ) */
(PID.TID 0000.0001)                 0.000000000000000E+00
(PID.TID 0000.0001)     ;
(PID.TID 0000.0001) momForcingOutAB = /* =1: take Momentum Forcing out of Adams-Bash. stepping */
(PID.TID 0000.0001)                       0
(PID.TID 0000.0001)     ;
(PID.TID 0000.0001) tracForcingOutAB = /* =1: take T,S,pTr Forcing out of Adams-Bash. stepping */
(PID.TID 0000.0001)                       0
(PID.TID 0000.0001)     ;
(PID.TID 0000.0001) momDissip_In_AB = /* put Dissipation Tendency in Adams-Bash. stepping */
(PID.TID 0000.0001)                   T
(PID.TID 0000.0001)     ;
(PID.TID 0000.0001) doAB_onGtGs = /* apply AB on Tendencies (rather than on T,S)*/
(PID.TID 0000.0001)                   T
(PID.TID 0000.0001)     ;
(PID.TID 0000.0001) abEps =   /* Adams-Bashforth-2 stabilizing weight */
(PID.TID 0000.0001)                 1.000000000000000E-01
(PID.TID 0000.0001)     ;
(PID.TID 0000.0001) applyExchUV_early = /* Apply EXCH to U,V earlier in time-step */
(PID.TID 0000.0001)                   F
(PID.TID 0000.0001)     ;
(PID.TID 0000.0001) pickupStrictlyMatch= /* stop if pickup do not strictly match */
(PID.TID 0000.0001)                   T
(PID.TID 0000.0001)     ;
(PID.TID 0000.0001) nIter0   =   /* Run starting timestep number */
(PID.TID 0000.0001)                       0
(PID.TID 0000.0001)     ;
(PID.TID 0000.0001) nTimeSteps = /* Number of timesteps */
(PID.TID 0000.0001)                  216000
(PID.TID 0000.0001)     ;
(PID.TID 0000.0001) nEndIter =   /* Run ending timestep number */
(PID.TID 0000.0001)                  216000
(PID.TID 0000.0001)     ;
(PID.TID 0000.0001) baseTime =   /* Model base time ( s ) */
(PID.TID 0000.0001)                 0.000000000000000E+00
(PID.TID 0000.0001)     ;
(PID.TID 0000.0001) startTime =  /* Run start time ( s ) */
(PID.TID 0000.0001)                 0.000000000000000E+00
(PID.TID 0000.0001)     ;
(PID.TID 0000.0001) endTime  =   /* Integration ending time ( s ) */
(PID.TID 0000.0001)                 4.320000000000000E+06
(PID.TID 0000.0001)     ;
(PID.TID 0000.0001) pChkPtFreq = /* Permanent restart/pickup file interval ( s ) */
(PID.TID 0000.0001)                 0.000000000000000E+00
(PID.TID 0000.0001)     ;
(PID.TID 0000.0001) chkPtFreq  = /* Rolling restart/pickup file interval ( s ) */
[...]
 cg2d: Sum(rhs),rhsMax =  -1.04488769410407E-15  1.83538191506744E+01
 cg3d: Sum(rhs),rhsMax =   4.30173938476192E-09  9.63418182725313E-10
 cg2d: Sum(rhs),rhsMax =   1.81703435261250E-15  1.83538191633473E+01
 cg3d: Sum(rhs),rhsMax =   3.74265984898908E-09  9.63617449305452E-10
 cg2d: Sum(rhs),rhsMax =   1.45632820429067E-15  1.83538191760046E+01
 cg3d: Sum(rhs),rhsMax =  -1.48019017331166E-10  9.63816696679671E-10
 cg2d: Sum(rhs),rhsMax =  -1.57571392478592E-15  1.83538191886468E+01
 cg3d: Sum(rhs),rhsMax =  -1.27863985910614E-09  9.64015910610234E-10
 cg2d: Sum(rhs),rhsMax =  -9.60028757074580E-16  1.83538192012737E+01
 cg3d: Sum(rhs),rhsMax =   1.71477807046081E-09  9.64215095245399E-10
 cg2d: Sum(rhs),rhsMax =  -1.50634211169425E-15  1.83538192138860E+01
 cg3d: Sum(rhs),rhsMax =   1.05197595768577E-09  9.64414252058116E-10
 cg2d: Sum(rhs),rhsMax =  -1.24753831503141E-15  1.83538192264834E+01
 cg3d: Sum(rhs),rhsMax =   5.77383954788514E-11  9.64613381031788E-10
 cg2d: Sum(rhs),rhsMax =   1.36471455008374E-15  1.83538192390664E+01
 cg3d: Sum(rhs),rhsMax =  -1.47003592197730E-09  9.64812485130271E-10
 cg2d: Sum(rhs),rhsMax =   1.55885601037187E-15  1.83538192516351E+01
 cg3d: Sum(rhs),rhsMax =  -1.72500822319784E-09  9.65011557080545E-10
 cg2d: Sum(rhs),rhsMax =   1.02278505755974E-15  1.83538192641898E+01
 cg3d: Sum(rhs),rhsMax =   1.84157516699876E-09  9.65210596693651E-10
 cg2d: Sum(rhs),rhsMax =  -1.44522349647305E-15  1.83538192767306E+01
 cg3d: Sum(rhs),rhsMax =  -1.91302360695697E-09  9.65409616898782E-10
 cg2d: Sum(rhs),rhsMax =   6.94643435002236E-16  1.83538192892578E+01
 cg3d: Sum(rhs),rhsMax =   2.90989505765966E-09  9.65608599098739E-10
 cg2d: Sum(rhs),rhsMax =  -1.39240122486307E-15  1.83538193017716E+01
 cg3d: Sum(rhs),rhsMax =  -3.09831858990260E-09  9.65807558341591E-10
 cg2d: Sum(rhs),rhsMax =   1.20152089436143E-15  1.83538193142722E+01
 cg3d: Sum(rhs),rhsMax =  -4.75934885066657E-09  9.66006490302081E-10
 cg2d: Sum(rhs),rhsMax =  -1.15636458856146E-15  1.83538193267600E+01
 cg3d: Sum(rhs),rhsMax =  -6.42897535010098E-09  9.66205392089467E-10
 cg2d: Sum(rhs),rhsMax =   8.15375620246263E-17  1.83538193392350E+01
 cg3d: Sum(rhs),rhsMax =   4.78095748133642E-09  9.66404266179084E-10
 cg2d: Sum(rhs),rhsMax =  -1.26725864494181E-15  1.83538193516976E+01
 cg3d: Sum(rhs),rhsMax =  -6.58966485613416E-09  9.66603111870037E-10
 cg2d: Sum(rhs),rhsMax =  -3.58655468321634E-15  1.83538193641479E+01
 cg3d: Sum(rhs),rhsMax =   5.86190905645985E-09  9.66801930017941E-10
 cg2d: Sum(rhs),rhsMax =   3.05974796797635E-16  1.83538193765861E+01
 cg3d: Sum(rhs),rhsMax =   2.29728769421546E-09  9.67000719601227E-10
 cg2d: Sum(rhs),rhsMax =  -1.33578766025096E-15  1.83538193890126E+01
 cg3d: Sum(rhs),rhsMax =   1.69203101745387E-11  9.67199478019565E-10
 cg2d: Sum(rhs),rhsMax =  -1.79447423886731E-16  1.83538194014278E+01
 cg3d: Sum(rhs),rhsMax =   7.90563587504408E-10  9.67398211563314E-10
 cg2d: Sum(rhs),rhsMax =  -6.41643789399147E-16  1.83538194138315E+01
 cg3d: Sum(rhs),rhsMax =   1.03340322878001E-10  9.67596917889327E-10
 cg2d: Sum(rhs),rhsMax =  -3.06018445464198E-17  1.83538194262243E+01
 cg3d: Sum(rhs),rhsMax =   1.45711295632155E-09  9.67795593949146E-10
 cg2d: Sum(rhs),rhsMax =   4.06369641568747E-16  1.83538194386063E+01
 cg3d: Sum(rhs),rhsMax =   1.02865757030363E-09  9.67994244236065E-10
 cg2d: Sum(rhs),rhsMax =   1.65493916627388E-15  1.83538194509779E+01
 cg3d: Sum(rhs),rhsMax =  -3.14677153585629E-09  9.68192864156282E-10
 cg2d: Sum(rhs),rhsMax =   9.05947238639610E-16  1.83538194633393E+01
 cg3d: Sum(rhs),rhsMax =   3.25546259915388E-10  9.68391460893419E-10
 cg2d: Sum(rhs),rhsMax =   1.63959680556070E-15  1.83538194756905E+01
 cg3d: Sum(rhs),rhsMax =  -2.88929691051609E-10  9.68590022843741E-10
 cg2d: Sum(rhs),rhsMax =  -2.51483695581020E-15  1.83538194880322E+01
 cg3d: Sum(rhs),rhsMax =   1.41878600388011E-09  9.68788555786394E-10
 cg2d: Sum(rhs),rhsMax =   3.38779196998667E-15  1.83538195003643E+01
 cg3d: Sum(rhs),rhsMax =  -4.28260476797863E-09  9.68987068857385E-10
 cg2d: Sum(rhs),rhsMax =   1.87064860002816E-15  1.83538195126875E+01
 cg3d: Sum(rhs),rhsMax =   1.04219783659003E-09  9.69185549933436E-10
 cg2d: Sum(rhs),rhsMax =   5.40476556459257E-16  1.83538195250016E+01
 cg3d: Sum(rhs),rhsMax =  -3.61429900314476E-09  9.69384002022519E-10
 cg2d: Sum(rhs),rhsMax =   6.42703401146382E-16  1.83538195373073E+01
 cg3d: Sum(rhs),rhsMax =  -4.32336364105513E-09  9.69582424535606E-10
 cg2d: Sum(rhs),rhsMax =  -3.27809373883940E-16  1.83538195496046E+01
 cg3d: Sum(rhs),rhsMax =  -3.15947622078950E-09  9.69780822047879E-10
 cg2d: Sum(rhs),rhsMax =   8.24955827577505E-16  1.83538195618938E+01
 cg3d: Sum(rhs),rhsMax =   1.65858461970966E-09  9.69979190069389E-10
 cg2d: Sum(rhs),rhsMax =   1.73972629079131E-15  1.83538195741753E+01
 cg3d: Sum(rhs),rhsMax =  -2.18679538971416E-09  9.70177532076182E-10
 cg2d: Sum(rhs),rhsMax =   1.34389895363299E-15  1.83538195864494E+01
 cg3d: Sum(rhs),rhsMax =  -5.63714056870220E-09  9.70375843124469E-10
 cg2d: Sum(rhs),rhsMax =   5.26624703741497E-15  1.83538195987162E+01
 cg3d: Sum(rhs),rhsMax =  -5.73957466093683E-09  9.70574127884415E-10
 cg2d: Sum(rhs),rhsMax =   1.85404651603396E-15  1.83538196109762E+01
 cg3d: Sum(rhs),rhsMax =   1.13003847205802E-10  9.70772387601861E-10
 cg2d: Sum(rhs),rhsMax =   8.98665799317877E-16  1.83538196232296E+01
 cg3d: Sum(rhs),rhsMax =  -2.89608621817112E-09  9.70970617126860E-10
 cg2d: Sum(rhs),rhsMax =  -1.49818878430221E-15  1.83538196354766E+01
 cg3d: Sum(rhs),rhsMax =  -2.81893549052437E-09  9.71168820140762E-10
 cg2d: Sum(rhs),rhsMax =   2.58942868884866E-16  1.83538196477178E+01
 cg3d: Sum(rhs),rhsMax =  -3.33917640298043E-09  9.71366991444709E-10
 cg2d: Sum(rhs),rhsMax =   6.47454647175548E-16  1.83538196599530E+01
 cg3d: Sum(rhs),rhsMax =  -7.86785449752346E-10  9.71565140616241E-10
 cg2d: Sum(rhs),rhsMax =  -1.91010326236237E-15  1.83538196721828E+01
 cg3d: Sum(rhs),rhsMax =   1.58602518630631E-10  9.71763259383520E-10
 cg2d: Sum(rhs),rhsMax =  -2.56028633500992E-15  1.83538196844076E+01
 cg3d: Sum(rhs),rhsMax =  -1.02429199210576E-09  9.71961350557892E-10
 cg2d: Sum(rhs),rhsMax =  -8.53118508403408E-16  1.83538196966273E+01
 cg3d: Sum(rhs),rhsMax =   4.56370300057352E-10  9.72159417409025E-10
 cg2d: Sum(rhs),rhsMax =  -5.52805862160372E-15  1.83538197088426E+01
 cg3d: Sum(rhs),rhsMax =   5.24841988693323E-09  9.72357456605244E-10
 cg2d: Sum(rhs),rhsMax =   2.66398550824783E-15  1.83538197210534E+01
 cg3d: Sum(rhs),rhsMax =  -3.32145009513210E-09  9.72555462545092E-10
 cg2d: Sum(rhs),rhsMax =   1.11448219745153E-15  1.83538197332602E+01
 cg3d: Sum(rhs),rhsMax =  -2.72384895558540E-09  9.72753443265347E-10
 cg2d: Sum(rhs),rhsMax =   1.75304532802151E-16  1.83538197454635E+01
 cg3d: Sum(rhs),rhsMax =  -3.02837092784668E-10  9.72951393852164E-10
 cg2d: Sum(rhs),rhsMax =  -1.14522840817589E-15  1.83538197576630E+01
 cg3d: Sum(rhs),rhsMax =  -1.66927358060228E-09  9.73149323243819E-10
 cg2d: Sum(rhs),rhsMax =  -4.08591435459174E-16  1.83538197698595E+01
 cg3d: Sum(rhs),rhsMax =   5.06388876876418E-09  9.73347223066547E-10
 cg2d: Sum(rhs),rhsMax =  -1.04892777656467E-15  1.83538197820530E+01
 cg3d: Sum(rhs),rhsMax =   3.61396125759329E-09  9.73545092225534E-10
 cg2d: Sum(rhs),rhsMax =  -3.39129286303680E-15  1.83538197942435E+01
 cg3d: Sum(rhs),rhsMax =   1.21141531530346E-09  9.73742935778900E-10
 cg2d: Sum(rhs),rhsMax =  -3.88077152450556E-15  1.83538198064319E+01
 cg3d: Sum(rhs),rhsMax =   3.69303785028609E-10  9.73940749818530E-10
 cg2d: Sum(rhs),rhsMax =   4.92803212847180E-16  1.83538198186179E+01
 cg3d: Sum(rhs),rhsMax =   3.30691311653015E-09  9.74138536442126E-10
 cg2d: Sum(rhs),rhsMax =  -3.45412306714660E-16  1.83538198308022E+01
 cg3d: Sum(rhs),rhsMax =  -3.25541821756157E-09  9.74336298195708E-10
 cg2d: Sum(rhs),rhsMax =  -4.50044724971987E-16  1.83538198429846E+01
 cg3d: Sum(rhs),rhsMax =   4.66466747947060E-09  9.74534035286380E-10
 cg2d: Sum(rhs),rhsMax =   1.98553432564222E-15  1.83538198551656E+01
 cg3d: Sum(rhs),rhsMax =  -2.37288045136020E-09  9.74731740675301E-10
 cg2d: Sum(rhs),rhsMax =   2.50018749451765E-15  1.83538198673454E+01
 cg3d: Sum(rhs),rhsMax =   6.13044058463667E-09  9.74929415557254E-10
 cg2d: Sum(rhs),rhsMax =   5.35356877567815E-15  1.83538198795240E+01
 cg3d: Sum(rhs),rhsMax =  -2.17323125986012E-09  9.75127068760318E-10
 cg2d: Sum(rhs),rhsMax =  -4.32448285178203E-15  1.83538198917020E+01
 cg3d: Sum(rhs),rhsMax =   4.39741669378040E-09  9.75324693010117E-10
 cg2d: Sum(rhs),rhsMax =   3.81258529284225E-16  1.83538199038792E+01
 cg3d: Sum(rhs),rhsMax =  -1.35119614896694E-09  9.75522289979573E-10
 cg2d: Sum(rhs),rhsMax =  -2.32414323725475E-15  1.83538199160561E+01
 cg3d: Sum(rhs),rhsMax =   3.97266957411570E-09  9.75719862693069E-10
 cg2d: Sum(rhs),rhsMax =  -5.46483687651405E-17  1.83538199282326E+01
 cg3d: Sum(rhs),rhsMax =   2.43350422820567E-11  9.75917403836655E-10
 cg2d: Sum(rhs),rhsMax =  -1.06077480288145E-15  1.83538199404091E+01
 cg3d: Sum(rhs),rhsMax =  -2.32970188663938E-09  9.76114917619999E-10
 cg2d: Sum(rhs),rhsMax =   3.34898298498629E-18  1.83538199525855E+01
 cg3d: Sum(rhs),rhsMax =   1.30522042989228E-10  9.76312407748749E-10
 cg2d: Sum(rhs),rhsMax =  -1.88100413367371E-15  1.83538199647623E+01
 cg3d: Sum(rhs),rhsMax =   2.67772880470130E-09  9.76509871377259E-10
 cg2d: Sum(rhs),rhsMax =   8.22007755874366E-16  1.83538199769395E+01
 cg3d: Sum(rhs),rhsMax =  -2.54390679596300E-09  9.76707303670322E-10
 cg2d: Sum(rhs),rhsMax =   1.16561146195818E-15  1.83538199891172E+01
 cg3d: Sum(rhs),rhsMax =   3.77985966470632E-09  9.76904712042205E-10
 cg2d: Sum(rhs),rhsMax =  -8.24877424090325E-16  1.83538200012956E+01
 cg3d: Sum(rhs),rhsMax =   1.99109875668909E-09  9.77102091112094E-10
 cg2d: Sum(rhs),rhsMax =  -1.04018560245562E-15  1.83538200134746E+01
 cg3d: Sum(rhs),rhsMax =  -9.77449819353085E-10  9.77299441817053E-10
 cg2d: Sum(rhs),rhsMax =   2.82136645330916E-15  1.83538200256546E+01
 cg3d: Sum(rhs),rhsMax =  -6.52034784231505E-10  9.77496769102986E-10
 cg2d: Sum(rhs),rhsMax =  -4.34002167119941E-15  1.83538200378354E+01
 cg3d: Sum(rhs),rhsMax =   1.44500261603021E-09  9.77694068552208E-10
 cg2d: Sum(rhs),rhsMax =  -8.18889112911474E-16  1.83538200500173E+01
 cg3d: Sum(rhs),rhsMax =   3.23229026308786E-09  9.77891341415893E-10
 cg2d: Sum(rhs),rhsMax =  -1.25664008109635E-16  1.83538200622003E+01
 cg3d: Sum(rhs),rhsMax =   1.75638695447622E-09  9.78088583655063E-10
 cg2d: Sum(rhs),rhsMax =  -1.17117048625145E-15  1.83538200743844E+01
 cg3d: Sum(rhs),rhsMax =   2.37366949512407E-09  9.78285804313989E-10
 cg2d: Sum(rhs),rhsMax =  -1.42125458164812E-16  1.83538200865695E+01
 cg3d: Sum(rhs),rhsMax =   1.16155099122819E-09  9.78482995924318E-10
 cg2d: Sum(rhs),rhsMax =   5.62318068627818E-16  1.83538200987560E+01
 cg3d: Sum(rhs),rhsMax =  -2.24443178162981E-09  9.78680156344675E-10
 cg2d: Sum(rhs),rhsMax =  -2.04352415997494E-16  1.83538201109434E+01
 cg3d: Sum(rhs),rhsMax =  -1.57777912830186E-09  9.78877296985924E-10
 cg2d: Sum(rhs),rhsMax =   1.15678048173856E-15  1.83538201231323E+01
 cg3d: Sum(rhs),rhsMax =  -5.39180971219485E-10  9.79074405161320E-10
 cg2d: Sum(rhs),rhsMax =  -1.78372502018974E-15  1.83538201353225E+01
 cg3d: Sum(rhs),rhsMax =   1.52172200719864E-09  9.79271487410388E-10
 cg2d: Sum(rhs),rhsMax =  -4.03096229804523E-16  1.83538201475139E+01
 cg3d: Sum(rhs),rhsMax =   6.46465286657056E-10  9.79468545154832E-10
 cg2d: Sum(rhs),rhsMax =   6.03845288235058E-16  1.83538201597065E+01
 cg3d: Sum(rhs),rhsMax =  -1.04944295236580E-09  9.79665576090732E-10
 cg2d: Sum(rhs),rhsMax =   1.86642645842345E-15  1.83538201719003E+01
 cg3d: Sum(rhs),rhsMax =  -2.82259726895828E-09  9.79862575992105E-10
 cg2d: Sum(rhs),rhsMax =   2.05240183288577E-15  1.83538201840952E+01
 cg3d: Sum(rhs),rhsMax =   7.14059654504176E-10  9.80059551013461E-10
 cg2d: Sum(rhs),rhsMax =   2.81826464512610E-15  1.83538201962913E+01
 cg3d: Sum(rhs),rhsMax =  -4.09028993624873E-10  9.80256504039989E-10
 cg2d: Sum(rhs),rhsMax =   2.83633402841296E-15  1.83538202084885E+01
 cg3d: Sum(rhs),rhsMax =  -5.09169508884297E-09  9.80453426859489E-10
 cg2d: Sum(rhs),rhsMax =   2.67511650055659E-15  1.83538202206864E+01
 cg3d: Sum(rhs),rhsMax =  -3.94615107393782E-09  9.80650320249888E-10
 cg2d: Sum(rhs),rhsMax =  -2.21056803042877E-15  1.83538202328855E+01
 cg3d: Sum(rhs),rhsMax =  -3.23995077179662E-10  9.80847193693426E-10
 cg2d: Sum(rhs),rhsMax =  -1.45636195325966E-15  1.83538202450852E+01
 cg3d: Sum(rhs),rhsMax =  -1.84262126336123E-09  9.81044034457915E-10
 cg2d: Sum(rhs),rhsMax =  -1.90490684757986E-15  1.83538202572856E+01
 cg3d: Sum(rhs),rhsMax =   6.67221108705928E-10  9.81240851348118E-10
 cg2d: Sum(rhs),rhsMax =  -1.06192557654963E-15  1.83538202694866E+01
 cg3d: Sum(rhs),rhsMax =   3.85730496610566E-09  9.81437638970344E-10
 cg2d: Sum(rhs),rhsMax =  -8.86857127711747E-16  1.83538202816880E+01
 cg3d: Sum(rhs),rhsMax =   1.51463024275353E-09  9.81634401089097E-10
 cg2d: Sum(rhs),rhsMax =   7.57885747110660E-16  1.83538202938897E+01
 cg3d: Sum(rhs),rhsMax =  -1.01270874253493E-09  9.81831137264513E-10
 cg2d: Sum(rhs),rhsMax =  -1.93585158165124E-15  1.83538203060916E+01
 cg3d: Sum(rhs),rhsMax =   1.18823495798449E-09  9.82027848275150E-10
 cg2d: Sum(rhs),rhsMax =   1.35486813617905E-15  1.83538203182935E+01
 cg3d: Sum(rhs),rhsMax =   2.81058442556763E-09  9.82224530180104E-10
 cg2d: Sum(rhs),rhsMax =   2.79244176046809E-15  1.83538203304952E+01
 cg3d: Sum(rhs),rhsMax =   4.01110698674482E-09  9.82421184708122E-10
 cg2d: Sum(rhs),rhsMax =   1.68354608941084E-15  1.83538203426968E+01
 cg3d: Sum(rhs),rhsMax =   7.21536796239805E-10  9.82617815926835E-10
 cg2d: Sum(rhs),rhsMax =  -6.74650942817973E-16  1.83538203548979E+01
 cg3d: Sum(rhs),rhsMax =  -2.10652009317901E-09  9.82814423010512E-10
 cg2d: Sum(rhs),rhsMax =   9.80541777474711E-16  1.83538203670984E+01
 cg3d: Sum(rhs),rhsMax =  -2.94855355002831E-11  9.83010996684045E-10
 cg2d: Sum(rhs),rhsMax =   1.34557467597023E-15  1.83538203792980E+01
 cg3d: Sum(rhs),rhsMax =  -4.96050296643752E-10  9.83207552644710E-10
 cg2d: Sum(rhs),rhsMax =  -3.87640859014315E-15  1.83538203914967E+01
 cg3d: Sum(rhs),rhsMax =  -1.73681043546116E-10  9.83404076310651E-10
 cg2d: Sum(rhs),rhsMax =  -1.60559502370356E-15  1.83538204036943E+01
 cg3d: Sum(rhs),rhsMax =   2.90308610254687E-09  9.83600572692367E-10
 cg2d: Sum(rhs),rhsMax =   1.96681645922490E-15  1.83538204158905E+01
 cg3d: Sum(rhs),rhsMax =  -5.80715750822785E-10  9.83797044225087E-10
 cg2d: Sum(rhs),rhsMax =   2.58671183067034E-16  1.83538204280851E+01
 cg3d: Sum(rhs),rhsMax =  -2.30703864371399E-09  9.83993493670549E-10
 cg2d: Sum(rhs),rhsMax =  -2.85735579797704E-16  1.83538204402782E+01
 cg3d: Sum(rhs),rhsMax =   2.11611769846873E-09  9.84189909435904E-10
 cg2d: Sum(rhs),rhsMax =   4.36870765956804E-15  1.83538204524692E+01
 cg3d: Sum(rhs),rhsMax =   4.60738486390290E-09  9.84386303980410E-10
 cg2d: Sum(rhs),rhsMax =  -3.72567889189079E-15  1.83538204646582E+01
 cg3d: Sum(rhs),rhsMax =   4.08983745080107E-09  9.84582672147493E-10
 cg2d: Sum(rhs),rhsMax =   1.69648470296860E-15  1.83538204768449E+01
 cg3d: Sum(rhs),rhsMax =   7.98961312404044E-09  9.84779013015046E-10
 cg2d: Sum(rhs),rhsMax =   2.28639328166645E-15  1.83538204890290E+01
 cg3d: Sum(rhs),rhsMax =  -2.76894060768408E-09  9.84975326871968E-10
 cg2d: Sum(rhs),rhsMax =   1.44742684092709E-16  1.83538205012104E+01
 cg3d: Sum(rhs),rhsMax =   6.49200777017082E-09  9.85171614333006E-10
 cg2d: Sum(rhs),rhsMax =  -1.40368200965460E-15  1.83538205133889E+01
 cg3d: Sum(rhs),rhsMax =   5.20517426250556E-09  9.85367878040522E-10
 cg2d: Sum(rhs),rhsMax =   1.60265039307177E-15  1.83538205255645E+01
 cg3d: Sum(rhs),rhsMax =   1.13368614071874E-09  9.85564114302277E-10
 cg2d: Sum(rhs),rhsMax =  -7.14832528827514E-15  1.83538205377368E+01
 cg3d: Sum(rhs),rhsMax =   4.38627568438038E-09  9.85760321655451E-10
 cg2d: Sum(rhs),rhsMax =   8.00022195165213E-16  1.83538205499054E+01
 cg3d: Sum(rhs),rhsMax =   1.42730362675625E-09  9.85956510400222E-10
 cg2d: Sum(rhs),rhsMax =  -1.40324136723357E-15  1.83538205620705E+01
 cg3d: Sum(rhs),rhsMax =  -3.72354010884872E-09  9.86152669359495E-10
 cg2d: Sum(rhs),rhsMax =   1.10178969990450E-15  1.83538205742317E+01
 cg3d: Sum(rhs),rhsMax =  -4.44215613581701E-09  9.86348798737060E-10
 cg2d: Sum(rhs),rhsMax =  -1.40581346218725E-15  1.83538205863889E+01
 cg3d: Sum(rhs),rhsMax =   2.02010143369877E-09  9.86544905469579E-10
 cg2d: Sum(rhs),rhsMax =   8.67185422786477E-16  1.83538205985421E+01
 cg3d: Sum(rhs),rhsMax =  -4.80805723152147E-09  9.86740980614991E-10
 cg2d: Sum(rhs),rhsMax =   1.55480496942250E-15  1.83538206106907E+01
 cg3d: Sum(rhs),rhsMax =  -1.39427658210866E-09  9.86937035081185E-10
 cg2d: Sum(rhs),rhsMax =  -1.39122853421738E-15  1.83538206228348E+01
 cg3d: Sum(rhs),rhsMax =  -1.92656540365572E-10  9.87133063207349E-10
 cg2d: Sum(rhs),rhsMax =  -2.40346977858925E-15  1.83538206349743E+01
 cg3d: Sum(rhs),rhsMax =   3.08827788292825E-09  9.87329066468360E-10
 cg2d: Sum(rhs),rhsMax =  -1.37099241418166E-15  1.83538206471089E+01
 cg3d: Sum(rhs),rhsMax =  -6.53676074145813E-09  9.87525042160288E-10
 cg2d: Sum(rhs),rhsMax =  -7.20425873837016E-17  1.83538206592385E+01
 cg3d: Sum(rhs),rhsMax =  -7.76893586292140E-09  9.87720992843608E-10
 cg2d: Sum(rhs),rhsMax =   2.86913273231742E-16  1.83538206713630E+01
 cg3d: Sum(rhs),rhsMax =   2.30621075558159E-09  9.87916918731198E-10
 cg2d: Sum(rhs),rhsMax =  -1.71134131675631E-15  1.83538206834822E+01
 cg3d: Sum(rhs),rhsMax =   1.89682878263628E-09  9.88112814471813E-10
 cg2d: Sum(rhs),rhsMax =   4.20853875850038E-15  1.83538206955959E+01
 cg3d: Sum(rhs),rhsMax =  -3.68525584977823E-09  9.88308688851090E-10
 cg2d: Sum(rhs),rhsMax =   1.84036913092751E-15  1.83538207077043E+01
 cg3d: Sum(rhs),rhsMax =  -8.68946758711880E-09  9.88504533583243E-10
 cg2d: Sum(rhs),rhsMax =  -1.36138634587574E-15  1.83538207198068E+01
 cg3d: Sum(rhs),rhsMax =   1.02141341588993E-09  9.88700355186908E-10
 cg2d: Sum(rhs),rhsMax =  -6.30708911687449E-16  1.83538207319035E+01
 cg3d: Sum(rhs),rhsMax =  -4.48825143145441E-09  9.88896147552355E-10
 cg2d: Sum(rhs),rhsMax =   2.47071328905205E-15  1.83538207439945E+01
 cg3d: Sum(rhs),rhsMax =  -2.67704659254439E-09  9.89091916719418E-10
 cg2d: Sum(rhs),rhsMax =   1.00314482520241E-15  1.83538207560794E+01
 cg3d: Sum(rhs),rhsMax =   4.84749051561992E-09  9.89287667089940E-10
 cg2d: Sum(rhs),rhsMax =   1.64391140610556E-15  1.83538207681583E+01
 cg3d: Sum(rhs),rhsMax =   1.62495589982778E-09  9.89483381582368E-10
 cg2d: Sum(rhs),rhsMax =   2.46881342062113E-15  1.83538207802311E+01
 cg3d: Sum(rhs),rhsMax =  -6.92706285873048E-10  9.89679074674423E-10
 cg2d: Sum(rhs),rhsMax =   6.14668913463090E-16  1.83538207922976E+01
 cg3d: Sum(rhs),rhsMax =  -7.87919954501064E-11  9.89874742550104E-10
 cg2d: Sum(rhs),rhsMax =   2.34553177208499E-15  1.83538208043580E+01
 cg3d: Sum(rhs),rhsMax =   3.18951403255921E-10  9.90070384694758E-10
 cg2d: Sum(rhs),rhsMax =   5.34040588367782E-16  1.83538208164119E+01
 cg3d: Sum(rhs),rhsMax =   4.41035734893321E-10  9.90265999257961E-10
 cg2d: Sum(rhs),rhsMax =   1.16555921061325E-15  1.83538208284596E+01
 cg3d: Sum(rhs),rhsMax =  -2.12868232294657E-09  9.90461588297683E-10
 cg2d: Sum(rhs),rhsMax =   3.42040522661525E-15  1.83538208405008E+01
 cg3d: Sum(rhs),rhsMax =   2.93634429881641E-09  9.90657148466123E-10
 cg2d: Sum(rhs),rhsMax =  -1.73083284189183E-15  1.83538208525356E+01
 cg3d: Sum(rhs),rhsMax =   1.15908028594720E-09  9.90852680963522E-10
 cg2d: Sum(rhs),rhsMax =   4.49061478538903E-16  1.83538208645637E+01
 cg3d: Sum(rhs),rhsMax =  -1.54780835171910E-09  9.91048184693396E-10
 cg2d: Sum(rhs),rhsMax =   1.43620892186211E-15  1.83538208765856E+01
 cg3d: Sum(rhs),rhsMax =  -4.26644065890219E-09  9.91243664604269E-10
 cg2d: Sum(rhs),rhsMax =  -2.23927977389295E-15  1.83538208886008E+01
